ZINC337835
  -OEChem-03122418313D

 22 23  0     0  0  0  0  0  0999 V2000
  -44.8991  -26.1032   -0.0745 C   0  0  0  0  0  0  0  0  0  0  0  0
  -46.2247  -26.5617   -0.1233 C   0  0  0  0  0  0  0  0  0  0  0  0
  -43.8874  -26.9081    0.4530 C   0  0  0  0  0  0  0  0  0  0  0  0
  -46.5564  -27.8315    0.3531 C   0  0  0  0  0  0  0  0  0  0  0  0
  -44.2245  -28.1697    0.9146 C   0  0  0  0  0  0  0  0  0  0  0  0
  -45.5445  -28.6267    0.8643 C   0  0  0  0  0  0  0  0  0  0  0  0
  -43.9842  -31.4824    2.5727 C   0  0  0  0  0  0  0  0  0  0  0  0
  -43.3279  -29.1814    1.5562 C   0  0  0  0  0  0  0  0  0  0  0  0
  -45.6654  -29.9935    1.4567 C   0  0  0  0  0  0  0  0  0  0  0  0
  -44.1951  -30.4582    1.4798 C   0  0  0  0  0  0  0  0  0  0  0  0
  -44.3910  -32.6359    2.5056 O   0  0  0  0  0  0  0  0  0  0  0  0
  -43.3471  -30.9847    3.6561 O   0  0  0  0  0  0  0  0  0  0  0  0
  -44.6606  -25.1098   -0.4445 H   0  0  0  0  0  0  0  0  0  0  0  0
  -47.0006  -25.9192   -0.5302 H   0  0  0  0  0  0  0  0  0  0  0  0
  -42.8656  -26.5472    0.5016 H   0  0  0  0  0  0  0  0  0  0  0  0
  -47.5830  -28.1804    0.3238 H   0  0  0  0  0  0  0  0  0  0  0  0
  -42.3955  -29.3102    0.9975 H   0  0  0  0  0  0  0  0  0  0  0  0
  -43.0975  -28.8669    2.5783 H   0  0  0  0  0  0  0  0  0  0  0  0
  -46.0975  -29.9380    2.4618 H   0  0  0  0  0  0  0  0  0  0  0  0
  -46.2753  -30.6549    0.8332 H   0  0  0  0  0  0  0  0  0  0  0  0
  -43.9579  -30.9582    0.5289 H   0  0  0  0  0  0  0  0  0  0  0  0
  -43.2518  -31.6544    4.3661 H   0  0  0  0  0  0  0  0  0  0  0  0
  1  2  1  0  0  0  0
  1  3  2  0  0  0  0
  2  4  2  0  0  0  0
  3  5  1  0  0  0  0
  4  6  1  0  0  0  0
  5  6  2  0  0  0  0
  5  8  1  0  0  0  0
  6  9  1  0  0  0  0
  7 10  1  0  0  0  0
  7 11  2  0  0  0  0
  7 12  1  0  0  0  0
  8 10  1  0  0  0  0
  9 10  1  0  0  0  0
  1 13  1  0  0  0  0
  2 14  1  0  0  0  0
  3 15  1  0  0  0  0
  4 16  1  0  0  0  0
  8 17  1  0  0  0  0
  8 18  1  0  0  0  0
  9 19  1  0  0  0  0
  9 20  1  0  0  0  0
 10 21  1  0  0  0  0
 12 22  1  0  0  0  0
M  END
$$$$
