Lig7
  -OEChem-10162320343D

 29 31  0     1  0  0  0  0  0999 V2000
   -2.2904   -2.1123  -24.3539 C   0  0  0  0  0  0  0  0  0  0  0  0
   -1.4128   -2.7870  -26.3947 C   0  0  0  0  0  0  0  0  0  0  0  0
   -2.7463    0.1961  -26.6224 C   0  0  0  0  0  0  0  0  0  0  0  0
    0.0817   -3.5503  -23.2993 C   0  0  0  0  0  0  0  0  0  0  0  0
    0.6612   -3.9816  -24.6542 C   0  0  0  0  0  0  0  0  0  0  0  0
   -0.9630   -5.5671  -23.9675 C   0  0  0  0  0  0  0  0  0  0  0  0
   -2.2697   -3.6156  -24.2931 C   0  0  1  0  0  0  0  0  0  0  0  0
   -1.6882   -4.0614  -25.6455 C   0  0  2  0  0  0  0  0  0  0  0  0
   -1.2957   -4.2403  -23.2741 C   0  0  2  0  0  0  0  0  0  0  0  0
   -0.4479   -4.8798  -25.2374 C   0  0  1  0  0  0  0  0  0  0  0  0
   -1.5237   -0.3409  -25.9265 C   0  0  0  0  0  0  0  0  0  0  0  0
   -1.7442   -1.7316  -25.5657 N   0  0  0  0  0  0  0  0  0  0  0  0
   -2.7165   -1.3929  -23.4615 O   0  0  0  0  0  0  0  0  0  0  0  0
   -0.9597   -2.7441  -27.5297 O   0  0  0  0  0  0  0  0  0  0  0  0
   -3.8136   -0.3806  -26.7655 O   0  0  0  0  0  0  0  0  0  0  0  0
   -2.5041    1.4569  -27.0642 O   0  0  0  0  0  0  0  0  0  0  0  0
    0.0306   -2.4631  -23.1944 H   0  0  0  0  0  0  0  0  0  0  0  0
    0.7148   -3.9288  -22.4882 H   0  0  0  0  0  0  0  0  0  0  0  0
    0.9137   -3.1275  -25.2889 H   0  0  0  0  0  0  0  0  0  0  0  0
    1.5811   -4.5568  -24.4997 H   0  0  0  0  0  0  0  0  0  0  0  0
   -0.1924   -6.1463  -23.4474 H   0  0  0  0  0  0  0  0  0  0  0  0
   -1.8412   -6.1982  -24.1411 H   0  0  0  0  0  0  0  0  0  0  0  0
   -3.2891   -3.9966  -24.1663 H   0  0  0  0  0  0  0  0  0  0  0  0
   -2.4133   -4.6694  -26.1978 H   0  0  0  0  0  0  0  0  0  0  0  0
   -1.7150   -4.3301  -22.2698 H   0  0  0  0  0  0  0  0  0  0  0  0
   -0.0920   -5.5511  -26.0217 H   0  0  0  0  0  0  0  0  0  0  0  0
   -0.6678   -0.2811  -26.6056 H   0  0  0  0  0  0  0  0  0  0  0  0
   -1.3440    0.2445  -25.0198 H   0  0  0  0  0  0  0  0  0  0  0  0
   -3.2865    1.8421  -27.5124 H   0  0  0  0  0  0  0  0  0  0  0  0
  1  7  1  0  0  0  0
  1 12  1  0  0  0  0
  1 13  2  0  0  0  0
  2  8  1  0  0  0  0
  2 12  1  0  0  0  0
  2 14  2  0  0  0  0
  3 11  1  0  0  0  0
  3 15  2  0  0  0  0
  3 16  1  0  0  0  0
  4  5  1  0  0  0  0
  4  9  1  0  0  0  0
  5 10  1  0  0  0  0
  6  9  1  0  0  0  0
  6 10  1  0  0  0  0
  7  8  1  0  0  0  0
  7  9  1  0  0  0  0
  8 10  1  0  0  0  0
 11 12  1  0  0  0  0
  4 17  1  0  0  0  0
  4 18  1  0  0  0  0
  5 19  1  0  0  0  0
  5 20  1  0  0  0  0
  6 21  1  0  0  0  0
  6 22  1  0  0  0  0
  7 23  1  0  0  0  0
  8 24  1  0  0  0  0
  9 25  1  0  0  0  0
 10 26  1  0  0  0  0
 11 27  1  0  0  0  0
 11 28  1  0  0  0  0
 16 29  1  0  0  0  0
M  END
$$$$
