ZINC922
  -OEChem-03122418293D

 18 18  0     0  0  0  0  0  0999 V2000
  -47.6705  -29.2241    5.3908 C   0  0  0  0  0  0  0  0  0  0  0  0
  -48.3692  -29.2720    6.6016 C   0  0  0  0  0  0  0  0  0  0  0  0
  -50.4488  -29.0879    5.4120 C   0  0  0  0  0  0  0  0  0  0  0  0
  -48.3542  -29.1086    4.1727 C   0  0  0  0  0  0  0  0  0  0  0  0
  -49.7652  -29.2133    6.6257 C   0  0  0  0  0  0  0  0  0  0  0  0
  -49.7526  -29.0378    4.1967 C   0  0  0  0  0  0  0  0  0  0  0  0
  -47.5217  -29.0651    2.9408 C   0  0  0  0  0  0  0  0  0  0  0  0
  -50.4563  -29.2408    7.8277 N   0  0  0  0  0  0  0  0  0  0  0  0
  -46.3013  -29.0823    2.9391 O   0  0  0  0  0  0  0  0  0  0  0  0
  -50.4714  -28.9132    3.0394 O   0  0  0  0  0  0  0  0  0  0  0  0
  -48.2679  -29.0101    1.8185 O   0  0  0  0  0  0  0  0  0  0  0  0
  -46.5848  -29.2782    5.4241 H   0  0  0  0  0  0  0  0  0  0  0  0
  -47.8079  -29.3582    7.5295 H   0  0  0  0  0  0  0  0  0  0  0  0
  -51.5357  -29.0282    5.4140 H   0  0  0  0  0  0  0  0  0  0  0  0
  -49.9596  -29.3597    8.7005 H   0  0  0  0  0  0  0  0  0  0  0  0
  -51.4678  -29.2473    7.8340 H   0  0  0  0  0  0  0  0  0  0  0  0
  -51.4187  -28.8795    3.2536 H   0  0  0  0  0  0  0  0  0  0  0  0
  -47.7181  -28.9811    1.0073 H   0  0  0  0  0  0  0  0  0  0  0  0
  1  2  1  0  0  0  0
  1  4  2  0  0  0  0
  2  5  2  0  0  0  0
  3  5  1  0  0  0  0
  3  6  2  0  0  0  0
  4  6  1  0  0  0  0
  4  7  1  0  0  0  0
  5  8  1  0  0  0  0
  6 10  1  0  0  0  0
  7  9  2  0  0  0  0
  7 11  1  0  0  0  0
  1 12  1  0  0  0  0
  2 13  1  0  0  0  0
  3 14  1  0  0  0  0
  8 15  1  0  0  0  0
  8 16  1  0  0  0  0
 10 17  1  0  0  0  0
 11 18  1  0  0  0  0
M  END
$$$$
