Lig4
  -OEChem-10162320313D

 34 36  0     0  0  0  0  0  0999 V2000
   -8.0884    4.0843  -25.0705 C   0  0  0  0  0  0  0  0  0  0  0  0
   -8.1407    2.9699  -22.4871 C   0  0  0  0  0  0  0  0  0  0  0  0
   -8.9542    4.6176  -24.0941 C   0  0  0  0  0  0  0  0  0  0  0  0
   -9.0013    4.0463  -22.7875 C   0  0  0  0  0  0  0  0  0  0  0  0
   -7.2793    3.0249  -24.7274 C   0  0  0  0  0  0  0  0  0  0  0  0
   -7.3007    2.4854  -23.4683 C   0  0  0  0  0  0  0  0  0  0  0  0
  -10.3091    7.2214  -22.4249 C   0  0  0  0  0  0  0  0  0  0  0  0
   -9.7465    5.8506  -24.4715 C   0  0  0  0  0  0  0  0  0  0  0  0
  -11.5045    6.3162  -22.1777 C   0  0  0  0  0  0  0  0  0  0  0  0
  -11.2569    4.8136  -22.0857 C   0  0  0  0  0  0  0  0  0  0  0  0
   -5.8712    1.3873  -24.6626 C   0  0  0  0  0  0  0  0  0  0  0  0
   -7.1493    7.2962  -22.8563 C   0  0  0  0  0  0  0  0  0  0  0  0
   -8.3000    7.7636  -23.7372 C   0  0  0  0  0  0  0  0  0  0  0  0
   -9.8828    4.4611  -21.7891 N   0  0  0  0  0  0  0  0  0  0  0  0
   -9.5149    6.9627  -23.5412 N   0  0  0  0  0  0  0  0  0  0  0  0
  -10.1002    8.1569  -21.6457 O   0  0  0  0  0  0  0  0  0  0  0  0
   -6.3840    2.4068  -25.5435 O   0  0  0  0  0  0  0  0  0  0  0  0
   -6.4258    1.4523  -23.3330 O   0  0  0  0  0  0  0  0  0  0  0  0
   -8.0373    4.5090  -26.0683 H   0  0  0  0  0  0  0  0  0  0  0  0
   -8.1472    2.5111  -21.5021 H   0  0  0  0  0  0  0  0  0  0  0  0
   -9.4750    6.2029  -25.4743 H   0  0  0  0  0  0  0  0  0  0  0  0
  -10.8099    5.6080  -24.5359 H   0  0  0  0  0  0  0  0  0  0  0  0
  -11.9461    6.6418  -21.2256 H   0  0  0  0  0  0  0  0  0  0  0  0
  -12.2655    6.5274  -22.9384 H   0  0  0  0  0  0  0  0  0  0  0  0
  -11.8845    4.4195  -21.2761 H   0  0  0  0  0  0  0  0  0  0  0  0
  -11.6189    4.2950  -22.9819 H   0  0  0  0  0  0  0  0  0  0  0  0
   -6.1058    0.4066  -25.0920 H   0  0  0  0  0  0  0  0  0  0  0  0
   -4.7827    1.4944  -24.5956 H   0  0  0  0  0  0  0  0  0  0  0  0
   -6.8349    6.2804  -23.1112 H   0  0  0  0  0  0  0  0  0  0  0  0
   -6.2849    7.9547  -22.9809 H   0  0  0  0  0  0  0  0  0  0  0  0
   -7.4306    7.3001  -21.7982 H   0  0  0  0  0  0  0  0  0  0  0  0
   -8.5321    8.8058  -23.4899 H   0  0  0  0  0  0  0  0  0  0  0  0
   -8.0102    7.7362  -24.7929 H   0  0  0  0  0  0  0  0  0  0  0  0
   -9.6681    4.1859  -20.8366 H   0  0  0  0  0  0  0  0  0  0  0  0
  1  3  1  0  0  0  0
  1  5  2  0  0  0  0
  2  4  1  0  0  0  0
  2  6  2  0  0  0  0
  3  4  2  0  0  0  0
  3  8  1  0  0  0  0
  4 14  1  0  0  0  0
  5  6  1  0  0  0  0
  5 17  1  0  0  0  0
  6 18  1  0  0  0  0
  7  9  1  0  0  0  0
  7 15  1  0  0  0  0
  7 16  2  0  0  0  0
  8 15  1  0  0  0  0
  9 10  1  0  0  0  0
 10 14  1  0  0  0  0
 11 17  1  0  0  0  0
 11 18  1  0  0  0  0
 12 13  1  0  0  0  0
 13 15  1  0  0  0  0
  1 19  1  0  0  0  0
  2 20  1  0  0  0  0
  8 21  1  0  0  0  0
  8 22  1  0  0  0  0
  9 23  1  0  0  0  0
  9 24  1  0  0  0  0
 10 25  1  0  0  0  0
 10 26  1  0  0  0  0
 11 27  1  0  0  0  0
 11 28  1  0  0  0  0
 12 29  1  0  0  0  0
 12 30  1  0  0  0  0
 12 31  1  0  0  0  0
 13 32  1  0  0  0  0
 13 33  1  0  0  0  0
 14 34  1  0  0  0  0
M  END
$$$$
