Lig40
  -OEChem-10162321273D

 58 63  0     1  0  0  0  0  0999 V2000
   -6.6034    1.6161  -23.9208 C   0  0  0  0  0  0  0  0  0  0  0  0
   -7.6166    1.8860  -22.9956 C   0  0  0  0  0  0  0  0  0  0  0  0
   -7.0869    3.6835  -25.0634 C   0  0  0  0  0  0  0  0  0  0  0  0
   -8.1144    3.9496  -24.1491 C   0  0  0  0  0  0  0  0  0  0  0  0
   -6.3243    2.5136  -24.9593 C   0  0  0  0  0  0  0  0  0  0  0  0
   -8.3800    3.0541  -23.0908 C   0  0  0  0  0  0  0  0  0  0  0  0
   -0.5944   -1.3618  -25.6738 C   0  0  0  0  0  0  0  0  0  0  0  0
   -1.9429   -1.4609  -23.7935 C   0  0  0  0  0  0  0  0  0  0  0  0
   -3.3065    0.6969  -25.7399 C   0  0  0  0  0  0  0  0  0  0  0  0
   -0.3750   -5.1999  -25.2594 C   0  0  0  0  0  0  0  0  0  0  0  0
   -1.2088   -5.2632  -23.9657 C   0  0  0  0  0  0  0  0  0  0  0  0
  -10.3595    4.9320  -23.7487 C   0  0  0  0  0  0  0  0  0  0  0  0
   -2.3538   -3.9387  -25.5683 C   0  0  0  0  0  0  0  0  0  0  0  0
   -8.2589    6.1561  -22.1551 C   0  0  0  0  0  0  0  0  0  0  0  0
   -8.9525    5.2066  -24.2758 C   0  0  1  0  0  0  0  0  0  0  0  0
   -0.3353   -2.7204  -25.0770 C   0  0  1  0  0  0  0  0  0  0  0  0
   -1.2050   -2.7760  -23.8131 C   0  0  2  0  0  0  0  0  0  0  0  0
   -0.8638   -3.8967  -25.9189 C   0  0  1  0  0  0  0  0  0  0  0  0
   -2.0970   -4.0052  -24.0611 C   0  0  2  0  0  0  0  0  0  0  0  0
  -10.2118    4.5194  -22.2833 C   0  0  2  0  0  0  0  0  0  0  0  0
   -9.5470    5.6546  -21.4939 C   0  0  2  0  0  0  0  0  0  0  0  0
   -5.2842    2.1997  -26.0008 C   0  0  0  0  0  0  0  0  0  0  0  0
   -1.9374    0.6611  -25.0883 C   0  0  0  0  0  0  0  0  0  0  0  0
   -9.4159    3.2980  -22.1919 N   0  0  0  0  0  0  0  0  0  0  0  0
   -1.5088   -0.7115  -24.8698 N   0  0  0  0  0  0  0  0  0  0  0  0
   -3.9898    1.8668  -25.4327 N   0  0  0  0  0  0  0  0  0  0  0  0
   -0.0517   -0.9483  -26.6888 O   0  0  0  0  0  0  0  0  0  0  0  0
   -2.7755   -1.1496  -22.9532 O   0  0  0  0  0  0  0  0  0  0  0  0
   -3.7150   -0.1887  -26.4862 O   0  0  0  0  0  0  0  0  0  0  0  0
   -8.3771    6.3167  -23.5739 O   0  0  0  0  0  0  0  0  0  0  0  0
  -10.4796    6.7361  -21.4198 O   0  0  0  0  0  0  0  0  0  0  0  0
   -6.0411    0.6902  -23.8280 H   0  0  0  0  0  0  0  0  0  0  0  0
   -7.8109    1.1671  -22.2028 H   0  0  0  0  0  0  0  0  0  0  0  0
   -6.8968    4.3847  -25.8730 H   0  0  0  0  0  0  0  0  0  0  0  0
    0.7006   -5.1933  -25.0565 H   0  0  0  0  0  0  0  0  0  0  0  0
   -0.5980   -6.0654  -25.8937 H   0  0  0  0  0  0  0  0  0  0  0  0
   -1.8147   -6.1756  -23.9545 H   0  0  0  0  0  0  0  0  0  0  0  0
   -0.5763   -5.2632  -23.0720 H   0  0  0  0  0  0  0  0  0  0  0  0
  -10.9789    5.8328  -23.8304 H   0  0  0  0  0  0  0  0  0  0  0  0
  -10.8468    4.1370  -24.3272 H   0  0  0  0  0  0  0  0  0  0  0  0
   -2.9078   -3.0503  -25.8828 H   0  0  0  0  0  0  0  0  0  0  0  0
   -2.8607   -4.8302  -25.9548 H   0  0  0  0  0  0  0  0  0  0  0  0
   -7.9781    7.1346  -21.7509 H   0  0  0  0  0  0  0  0  0  0  0  0
   -7.4246    5.4773  -21.9468 H   0  0  0  0  0  0  0  0  0  0  0  0
   -9.0256    5.4938  -25.3310 H   0  0  0  0  0  0  0  0  0  0  0  0
    0.7314   -2.8090  -24.8464 H   0  0  0  0  0  0  0  0  0  0  0  0
   -0.6067   -2.8602  -22.9003 H   0  0  0  0  0  0  0  0  0  0  0  0
   -0.6429   -3.8277  -26.9861 H   0  0  0  0  0  0  0  0  0  0  0  0
   -2.9946   -4.0468  -23.4408 H   0  0  0  0  0  0  0  0  0  0  0  0
  -11.2083    4.3210  -21.8711 H   0  0  0  0  0  0  0  0  0  0  0  0
   -9.3379    5.3407  -20.4649 H   0  0  0  0  0  0  0  0  0  0  0  0
   -5.6450    1.3854  -26.6377 H   0  0  0  0  0  0  0  0  0  0  0  0
   -5.1106    3.0699  -26.6435 H   0  0  0  0  0  0  0  0  0  0  0  0
   -1.2325    1.1700  -25.7538 H   0  0  0  0  0  0  0  0  0  0  0  0
   -1.9628    1.1723  -24.1207 H   0  0  0  0  0  0  0  0  0  0  0  0
   -9.4966    2.7175  -21.3658 H   0  0  0  0  0  0  0  0  0  0  0  0
   -3.5548    2.5517  -24.8209 H   0  0  0  0  0  0  0  0  0  0  0  0
  -10.0637    7.4515  -20.9099 H   0  0  0  0  0  0  0  0  0  0  0  0
  1  2  1  0  0  0  0
  1  5  2  0  0  0  0
  2  6  2  0  0  0  0
  3  4  2  0  0  0  0
  3  5  1  0  0  0  0
  4  6  1  0  0  0  0
  4 15  1  0  0  0  0
  5 22  1  0  0  0  0
  6 24  1  0  0  0  0
  7 16  1  0  0  0  0
  7 25  1  0  0  0  0
  7 27  2  0  0  0  0
  8 17  1  0  0  0  0
  8 25  1  0  0  0  0
  8 28  2  0  0  0  0
  9 23  1  0  0  0  0
  9 26  1  0  0  0  0
  9 29  2  0  0  0  0
 10 11  1  0  0  0  0
 10 18  1  0  0  0  0
 11 19  1  0  0  0  0
 12 15  1  0  0  0  0
 12 20  1  0  0  0  0
 13 18  1  0  0  0  0
 13 19  1  0  0  0  0
 14 21  1  0  0  0  0
 14 30  1  0  0  0  0
 15 30  1  0  0  0  0
 16 17  1  0  0  0  0
 16 18  1  0  0  0  0
 17 19  1  0  0  0  0
 20 21  1  0  0  0  0
 20 24  1  0  0  0  0
 21 31  1  0  0  0  0
 22 26  1  0  0  0  0
 23 25  1  0  0  0  0
  1 32  1  0  0  0  0
  2 33  1  0  0  0  0
  3 34  1  0  0  0  0
 10 35  1  0  0  0  0
 10 36  1  0  0  0  0
 11 37  1  0  0  0  0
 11 38  1  0  0  0  0
 12 39  1  0  0  0  0
 12 40  1  0  0  0  0
 13 41  1  0  0  0  0
 13 42  1  0  0  0  0
 14 43  1  0  0  0  0
 14 44  1  0  0  0  0
 15 45  1  0  0  0  0
 16 46  1  0  0  0  0
 17 47  1  0  0  0  0
 18 48  1  0  0  0  0
 19 49  1  0  0  0  0
 20 50  1  0  0  0  0
 21 51  1  0  0  0  0
 22 52  1  0  0  0  0
 22 53  1  0  0  0  0
 23 54  1  0  0  0  0
 23 55  1  0  0  0  0
 24 56  1  0  0  0  0
 26 57  1  0  0  0  0
 31 58  1  0  0  0  0
M  END
$$$$
