@<TRIPOS>MOLECULE
Lig16
   67    71     0     0     0
SMALL
USER_CHARGES

@<TRIPOS>ATOM
      1 C1         -0.6059   -2.8683  -28.2898 C.ar      1 <0>        -0.1500
      2 C2          0.7252   -2.6115  -28.5832 C.ar      1 <0>        -0.1500
      3 C3         -0.9749   -3.2023  -26.9906 C.ar      1 <0>        -0.1500
      4 C4         -6.8916    1.6099  -24.2082 C.ar      1 <0>        -0.1500
      5 C5         -7.8257    1.9004  -23.2086 C.ar      1 <0>        -0.1500
      6 C6          1.6923   -2.7051  -27.5829 C.ar      1 <0>        -0.1500
      7 C7         -6.7762    3.9456  -24.7960 C.ar      1 <0>        -0.1500
      8 C8         -0.0270   -3.2309  -25.9477 C.ar      1 <0>        -0.1435
      9 C9         -7.7026    4.2407  -23.7880 C.ar      1 <0>        -0.1435
     10 C10        -6.3506    2.6303  -25.0021 C.ar      1 <0>        -0.1435
     11 C11        -8.2400    3.2162  -22.9796 C.ar      1 <0>         0.1000
     12 C12         1.3416   -3.0239  -26.2613 C.ar      1 <0>         0.1015
     13 C13        -2.3213   -1.7040  -24.0887 C.2       1 <0>         0.5690
     14 C14        -3.3364    0.8004  -25.6736 C.2       1 <0>         0.6900
     15 C15        -1.9606   -5.3557  -24.2539 C.3       1 <0>         0.0000
     16 C16        -0.4940   -4.9544  -24.1501 C.3       1 <0>         0.0000
     17 C17        -8.3965    5.8527  -22.0433 C.3       1 <0>         0.0000
     18 C18        -2.6760   -4.1214  -23.7410 C.3       1 <0>         0.3001
     19 C19       -10.5011    5.2932  -23.9634 C.3       1 <0>         0.2800
     20 C20        -0.4903   -3.4585  -24.5172 C.3       1 <0>         0.4436
     21 C21        -8.1424    5.6678  -23.5411 C.3       1 <0>         0.4235
     22 C22        -9.5231    4.8947  -21.6583 C.3       1 <0>         0.3691
     23 C23       -10.7686    5.2936  -22.4597 C.3       1 <0>         0.2800
     24 C24         4.0937   -3.5733  -25.8906 C.3       1 <0>         0.2300
     25 C25        -5.2907    2.3234  -26.0254 C.3       1 <0>         0.4436
     26 C26        -1.4987   -0.6198  -24.7751 C.3       1 <0>         0.3611
     27 N1         -9.1210    3.5150  -21.9432 N.pl3     1 <0>        -0.8691
     28 N2         -1.8593   -3.0077  -24.2032 N.am      1 <0>        -0.6602
     29 N3         -4.0377    1.9651  -25.3809 N.am      1 <0>        -0.7301
     30 N4         -2.2846    0.6001  -24.7766 N.am      1 <0>        -0.7301
     31 O1         -3.3603   -1.4267  -23.4821 O.2       1 <0>        -0.5700
     32 O2         -3.6388    0.0133  -26.5700 O.2       1 <0>        -0.5700
     33 O3         -9.3095    6.0066  -24.3054 O.3       1 <0>        -0.5600
     34 O4        -11.8616    4.4478  -22.1370 O.3       1 <0>        -0.6800
     35 S1          2.6045   -3.1018  -24.9729 S.3       1 <0>        -0.3315
     36 H1         -1.3623   -2.7875  -29.0638 H         1 <0>         0.1500
     37 H2          1.0158   -2.3332  -29.5914 H         1 <0>         0.1500
     38 H3         -2.0276   -3.3863  -26.7906 H         1 <0>         0.1500
     39 H4         -6.5745    0.5795  -24.3514 H         1 <0>         0.1500
     40 H5         -8.2152    1.0879  -22.5993 H         1 <0>         0.1500
     41 H6          2.7202   -2.4975  -27.8639 H         1 <0>         0.1500
     42 H7         -6.3672    4.7499  -25.4029 H         1 <0>         0.1500
     43 H8         -2.2255   -5.5421  -25.3012 H         1 <0>         0.0000
     44 H9         -2.2018   -6.2518  -23.6761 H         1 <0>         0.0000
     45 H10        -0.1666   -5.0779  -23.1100 H         1 <0>         0.0000
     46 H11         0.1501   -5.5772  -24.7789 H         1 <0>         0.0000
     47 H12        -7.4901    5.6383  -21.4632 H         1 <0>         0.0000
     48 H13        -8.6951    6.8865  -21.8336 H         1 <0>         0.0000
     49 H14        -3.7013   -4.0301  -24.1114 H         1 <0>         0.0000
     50 H15        -2.6921   -4.0930  -22.6454 H         1 <0>         0.0000
     51 H16       -10.4582    4.2743  -24.3669 H         1 <0>         0.0000
     52 H17       -11.3374    5.7716  -24.4858 H         1 <0>         0.0000
     53 H18         0.1507   -2.8994  -23.8278 H         1 <0>         0.0000
     54 H19        -7.3456    6.3549  -23.8474 H         1 <0>         0.0000
     55 H20        -9.7390    4.9669  -20.5864 H         1 <0>         0.0000
     56 H21       -11.0449    6.3124  -22.1578 H         1 <0>         0.0000
     57 H22         4.8718   -3.8578  -25.1767 H         1 <0>         0.0000
     58 H23         4.4651   -2.7270  -26.4735 H         1 <0>         0.0000
     59 H24         3.8997   -4.4274  -26.5450 H         1 <0>         0.0000
     60 H25        -5.6316    1.5163  -26.6830 H         1 <0>         0.0000
     61 H26        -5.0867    3.1954  -26.6560 H         1 <0>         0.0000
     62 H27        -1.3004   -0.8733  -25.8158 H         1 <0>         0.0000
     63 H28        -0.5631   -0.4391  -24.2420 H         1 <0>         0.0000
     64 H29        -9.5819    2.7565  -21.4547 H         1 <0>         0.4000
     65 H30        -3.6651    2.5893  -24.6717 H         1 <0>         0.3700
     66 H31        -2.0881    1.3093  -24.0775 H         1 <0>         0.3700
     67 H32       -12.6413    4.7895  -22.6074 H         1 <0>         0.4000
@<TRIPOS>BOND
     1    1    2 ar
     2    1    3 ar
     3    2    6 ar
     4    3    8 ar
     5    4    5 ar
     6    4   10 ar
     7    5   11 ar
     8    6   12 ar
     9    7    9 ar
    10    7   10 ar
    11    8   12 ar
    12    8   20 1
    13    9   11 ar
    14    9   21 1
    15   10   25 1
    16   11   27 1
    17   12   35 1
    18   13   26 1
    19   13   28 am
    20   13   31 2
    21   14   29 am
    22   14   30 am
    23   14   32 2
    24   15   16 1
    25   15   18 1
    26   16   20 1
    27   17   21 1
    28   17   22 1
    29   18   28 1
    30   19   23 1
    31   19   33 1
    32   20   28 1
    33   21   33 1
    34   22   23 1
    35   22   27 1
    36   23   34 1
    37   24   35 1
    38   25   29 1
    39   26   30 1
    40    1   36 1
    41    2   37 1
    42    3   38 1
    43    4   39 1
    44    5   40 1
    45    6   41 1
    46    7   42 1
    47   15   43 1
    48   15   44 1
    49   16   45 1
    50   16   46 1
    51   17   47 1
    52   17   48 1
    53   18   49 1
    54   18   50 1
    55   19   51 1
    56   19   52 1
    57   20   53 1
    58   21   54 1
    59   22   55 1
    60   23   56 1
    61   24   57 1
    62   24   58 1
    63   24   59 1
    64   25   60 1
    65   25   61 1
    66   26   62 1
    67   26   63 1
    68   27   64 1
    69   29   65 1
    70   30   66 1
    71   34   67 1
