@<TRIPOS>MOLECULE
Lig14
   67    71     0     0     0
SMALL
USER_CHARGES

@<TRIPOS>ATOM
      1 C1         -0.5529   -2.9756  -28.2762 C.ar      1 <0>        -0.1500
      2 C2          0.7689   -2.6500  -28.5413 C.ar      1 <0>        -0.1500
      3 C3         -0.9398   -3.2917  -26.9774 C.ar      1 <0>        -0.1500
      4 C4         -6.6603    1.6868  -23.9675 C.ar      1 <0>        -0.1500
      5 C5         -7.6963    1.9065  -23.0556 C.ar      1 <0>        -0.1500
      6 C6          1.7096   -2.6564  -27.5123 C.ar      1 <0>        -0.1500
      7 C7         -7.1948    3.7539  -25.0877 C.ar      1 <0>        -0.1500
      8 C8         -0.0209   -3.2437  -25.9096 C.ar      1 <0>        -0.1435
      9 C9         -8.2457    3.9701  -24.1864 C.ar      1 <0>        -0.1435
     10 C10        -6.3843    2.6176  -24.9785 C.ar      1 <0>        -0.1435
     11 C11        -8.4897    3.0545  -23.1395 C.ar      1 <0>         0.1000
     12 C12         1.3404   -2.9632  -26.1927 C.ar      1 <0>         0.1015
     13 C13        -2.3852   -1.7538  -24.1290 C.2       1 <0>         0.5690
     14 C14        -3.3620    0.8105  -25.6490 C.2       1 <0>         0.6900
     15 C15        -1.9462   -5.4008  -24.2418 C.3       1 <0>         0.0000
     16 C16        -0.4912   -4.9662  -24.1103 C.3       1 <0>         0.0000
     17 C17       -10.5072    4.9123  -23.7418 C.3       1 <0>         0.0000
     18 C18        -2.7024   -4.1761  -23.7650 C.3       1 <0>         0.3001
     19 C19        -8.3838    6.1568  -22.1951 C.3       1 <0>         0.2800
     20 C20        -0.5103   -3.4737  -24.4886 C.3       1 <0>         0.4436
     21 C21        -9.1159    5.2071  -24.2992 C.3       1 <0>         0.4235
     22 C22       -10.3211    4.4882  -22.2845 C.3       1 <0>         0.3691
     23 C23        -9.6365    5.6147  -21.4970 C.3       1 <0>         0.2800
     24 C24         4.0817   -3.4525  -25.7355 C.3       1 <0>         0.2300
     25 C25        -5.2783    2.3819  -25.9743 C.3       1 <0>         0.4436
     26 C26        -1.5503   -0.6645  -24.7928 C.3       1 <0>         0.3611
     27 N1         -9.5231    3.2667  -22.2302 N.pl3     1 <0>        -0.8691
     28 N2         -1.8957   -3.0499  -24.2140 N.am      1 <0>        -0.6602
     29 N3         -4.0342    1.9869  -25.3343 N.am      1 <0>        -0.7301
     30 N4         -2.3094    0.5710  -24.7642 N.am      1 <0>        -0.7301
     31 O1         -3.4548   -1.4899  -23.5724 O.2       1 <0>        -0.5700
     32 O2         -3.6891    0.0437  -26.5546 O.2       1 <0>        -0.5700
     33 O3         -8.5511    6.3290  -23.6077 O.3       1 <0>        -0.5600
     34 O4        -10.5788    6.6808  -21.3532 O.3       1 <0>        -0.6800
     35 S1          2.5750   -2.9278  -24.8767 S.3       1 <0>        -0.3315
     36 H1         -1.2891   -2.9647  -29.0734 H         1 <0>         0.1500
     37 H2          1.0726   -2.3858  -29.5495 H         1 <0>         0.1500
     38 H3         -1.9858   -3.5300  -26.8004 H         1 <0>         0.1500
     39 H4         -6.0677    0.7796  -23.8765 H         1 <0>         0.1500
     40 H5         -7.8757    1.1710  -22.2746 H         1 <0>         0.1500
     41 H6          2.7313   -2.3924  -27.7684 H         1 <0>         0.1500
     42 H7         -7.0135    4.4742  -25.8821 H         1 <0>         0.1500
     43 H8         -2.1822   -5.6097  -25.2917 H         1 <0>         0.0000
     44 H9         -2.1812   -6.2934  -23.6561 H         1 <0>         0.0000
     45 H10        -0.1837   -5.0748  -23.0627 H         1 <0>         0.0000
     46 H11         0.1797   -5.5788  -24.7207 H         1 <0>         0.0000
     47 H12       -11.1384    5.8068  -23.7992 H         1 <0>         0.0000
     48 H13       -10.9987    4.1168  -24.3160 H         1 <0>         0.0000
     49 H14        -3.7174   -4.1115  -24.1680 H         1 <0>         0.0000
     50 H15        -2.7531   -4.1362  -22.6709 H         1 <0>         0.0000
     51 H16        -8.1145    7.1381  -21.7898 H         1 <0>         0.0000
     52 H17        -7.5255    5.4983  -22.0228 H         1 <0>         0.0000
     53 H18         0.1002   -2.8977  -23.7860 H         1 <0>         0.0000
     54 H19        -9.2155    5.4899  -25.3535 H         1 <0>         0.0000
     55 H20       -11.3060    4.2826  -21.8487 H         1 <0>         0.0000
     56 H21        -9.3796    5.2785  -20.4858 H         1 <0>         0.0000
     57 H22         4.8472   -3.6899  -24.9916 H         1 <0>         0.0000
     58 H23         4.4627   -2.6448  -26.3653 H         1 <0>         0.0000
     59 H24         3.8991   -4.3458  -26.3386 H         1 <0>         0.0000
     60 H25        -5.5997    1.6191  -26.6920 H         1 <0>         0.0000
     61 H26        -5.0556    3.2980  -26.5309 H         1 <0>         0.0000
     62 H27        -1.3620   -0.9036  -25.8399 H         1 <0>         0.0000
     63 H28        -0.6093   -0.5113  -24.2603 H         1 <0>         0.0000
     64 H29        -9.5978    2.6625  -21.4204 H         1 <0>         0.4000
     65 H30        -3.6489    2.5902  -24.6140 H         1 <0>         0.3700
     66 H31        -2.0780    1.2718  -24.0674 H         1 <0>         0.3700
     67 H32       -10.1577    7.3754  -20.8190 H         1 <0>         0.4000
@<TRIPOS>BOND
     1    1    2 ar
     2    1    3 ar
     3    2    6 ar
     4    3    8 ar
     5    4    5 ar
     6    4   10 ar
     7    5   11 ar
     8    6   12 ar
     9    7    9 ar
    10    7   10 ar
    11    8   12 ar
    12    8   20 1
    13    9   11 ar
    14    9   21 1
    15   10   25 1
    16   11   27 1
    17   12   35 1
    18   13   26 1
    19   13   28 am
    20   13   31 2
    21   14   29 am
    22   14   30 am
    23   14   32 2
    24   15   16 1
    25   15   18 1
    26   16   20 1
    27   17   21 1
    28   17   22 1
    29   18   28 1
    30   19   23 1
    31   19   33 1
    32   20   28 1
    33   21   33 1
    34   22   23 1
    35   22   27 1
    36   23   34 1
    37   24   35 1
    38   25   29 1
    39   26   30 1
    40    1   36 1
    41    2   37 1
    42    3   38 1
    43    4   39 1
    44    5   40 1
    45    6   41 1
    46    7   42 1
    47   15   43 1
    48   15   44 1
    49   16   45 1
    50   16   46 1
    51   17   47 1
    52   17   48 1
    53   18   49 1
    54   18   50 1
    55   19   51 1
    56   19   52 1
    57   20   53 1
    58   21   54 1
    59   22   55 1
    60   23   56 1
    61   24   57 1
    62   24   58 1
    63   24   59 1
    64   25   60 1
    65   25   61 1
    66   26   62 1
    67   26   63 1
    68   27   64 1
    69   29   65 1
    70   30   66 1
    71   34   67 1
