@<TRIPOS>MOLECULE
Lig2
   54    56     0     0     0
SMALL
USER_CHARGES

@<TRIPOS>ATOM
      1 C1          2.6875   -2.6793  -23.8409 C.ar      1 <0>        -0.1500
      2 C2          3.5386   -2.5851  -24.9298 C.ar      1 <0>        -0.1500
      3 C3          1.3428   -2.9743  -24.0426 C.ar      1 <0>        -0.1500
      4 C4         -6.4290    1.6641  -24.3988 C.ar      1 <0>        -0.1500
      5 C5         -6.8801    3.8375  -25.3365 C.ar      1 <0>        -0.1500
      6 C6         -7.4162    1.8741  -23.4352 C.ar      1 <0>        -0.1500
      7 C7         -7.8705    4.0430  -24.3736 C.ar      1 <0>        -0.1500
      8 C8          3.0478   -2.7904  -26.2199 C.ar      1 <0>        -0.1500
      9 C9          0.8156   -3.1785  -25.3363 C.ar      1 <0>        -0.1435
     10 C10        -6.1323    2.6561  -25.3425 C.ar      1 <0>        -0.1435
     11 C11        -8.1312    3.0748  -23.3978 C.ar      1 <0>         0.1000
     12 C12         1.6930   -3.0895  -26.4493 C.ar      1 <0>         0.1015
     13 C13        -1.9285   -1.6453  -24.2937 C.2       1 <0>         0.5690
     14 C14        -3.2257    0.7822  -26.0036 C.2       1 <0>         0.6900
     15 C15        -1.2452   -5.2518  -23.9231 C.3       1 <0>         0.0000
     16 C16        -0.9077   -5.0426  -25.3944 C.3       1 <0>         0.0000
     17 C17        -2.0689   -4.0187  -23.5924 C.3       1 <0>         0.3001
     18 C18        -0.6638   -3.5280  -25.4963 C.3       1 <0>         0.4436
     19 C19         2.4335   -2.9083  -29.1983 C.3       1 <0>         0.2300
     20 C20        -5.0478    2.4526  -26.3640 C.3       1 <0>         0.4436
     21 C21        -1.3274   -0.6509  -25.2747 C.3       1 <0>         0.3611
     22 N1         -1.5347   -2.9667  -24.4492 N.am      1 <0>        -0.6602
     23 N2         -9.1194    3.2766  -22.4466 N.pl3     1 <0>        -0.9000
     24 N3         -3.8081    2.0176  -25.7441 N.am      1 <0>        -0.7301
     25 N4         -2.0950    0.5757  -25.2188 N.am      1 <0>        -0.7301
     26 O1         -2.6852   -1.2773  -23.3916 O.2       1 <0>        -0.5700
     27 O2         -3.6629   -0.0354  -26.8126 O.2       1 <0>        -0.5700
     28 S1          1.0645   -3.3885  -28.1157 S.3       1 <0>        -0.3315
     29 H1          3.0653   -2.5295  -22.8342 H         1 <0>         0.1500
     30 H2          4.5898   -2.3579  -24.7794 H         1 <0>         0.1500
     31 H3          0.7085   -3.0466  -23.1628 H         1 <0>         0.1500
     32 H4         -5.8869    0.7218  -24.3972 H         1 <0>         0.1500
     33 H5         -6.6928    4.6115  -26.0765 H         1 <0>         0.1500
     34 H6         -7.6156    1.0918  -22.7064 H         1 <0>         0.1500
     35 H7         -8.4322    4.9742  -24.3868 H         1 <0>         0.1500
     36 H8          3.7645   -2.7159  -27.0312 H         1 <0>         0.1500
     37 H9         -1.7865   -6.1823  -23.7355 H         1 <0>         0.0000
     38 H10        -0.3262   -5.2699  -23.3264 H         1 <0>         0.0000
     39 H11        -0.0676   -5.6592  -25.7275 H         1 <0>         0.0000
     40 H12        -1.7841   -5.3124  -25.9981 H         1 <0>         0.0000
     41 H13        -3.1222   -4.1593  -23.8594 H         1 <0>         0.0000
     42 H14        -2.0070   -3.7288  -22.5397 H         1 <0>         0.0000
     43 H15        -1.0473   -3.1523  -26.4481 H         1 <0>         0.0000
     44 H16         2.0969   -2.9792  -30.2360 H         1 <0>         0.0000
     45 H17         3.2795   -3.5881  -29.0705 H         1 <0>         0.0000
     46 H18         2.7411   -1.8762  -29.0106 H         1 <0>         0.0000
     47 H19        -5.3821    1.7263  -27.1125 H         1 <0>         0.0000
     48 H20        -4.8173    3.3902  -26.8810 H         1 <0>         0.0000
     49 H21        -1.3562   -1.0291  -26.2986 H         1 <0>         0.0000
     50 H22        -0.3000   -0.4184  -24.9845 H         1 <0>         0.0000
     51 H23        -9.2502    2.6030  -21.7035 H         1 <0>         0.4000
     52 H24        -9.5887    4.1703  -22.3857 H         1 <0>         0.4000
     53 H25        -3.3734    2.6295  -25.0596 H         1 <0>         0.3700
     54 H26        -1.8275    1.2854  -24.5435 H         1 <0>         0.3700
@<TRIPOS>BOND
     1    1    2 ar
     2    1    3 ar
     3    2    8 ar
     4    3    9 ar
     5    4    6 ar
     6    4   10 ar
     7    5    7 ar
     8    5   10 ar
     9    6   11 ar
    10    7   11 ar
    11    8   12 ar
    12    9   12 ar
    13    9   18 1
    14   10   20 1
    15   11   23 1
    16   12   28 1
    17   13   21 1
    18   13   22 am
    19   13   26 2
    20   14   24 am
    21   14   25 am
    22   14   27 2
    23   15   16 1
    24   15   17 1
    25   16   18 1
    26   17   22 1
    27   18   22 1
    28   19   28 1
    29   20   24 1
    30   21   25 1
    31    1   29 1
    32    2   30 1
    33    3   31 1
    34    4   32 1
    35    5   33 1
    36    6   34 1
    37    7   35 1
    38    8   36 1
    39   15   37 1
    40   15   38 1
    41   16   39 1
    42   16   40 1
    43   17   41 1
    44   17   42 1
    45   18   43 1
    46   19   44 1
    47   19   45 1
    48   19   46 1
    49   20   47 1
    50   20   48 1
    51   21   49 1
    52   21   50 1
    53   23   51 1
    54   23   52 1
    55   24   53 1
    56   25   54 1
