@<TRIPOS>MOLECULE
Lig39
   58    63     0     0     0
SMALL
USER_CHARGES

@<TRIPOS>ATOM
      1 C1         -6.5802    1.6072  -23.9148 C.ar      1 <0>        -0.1500
      2 C2         -7.5944    1.8795  -22.9912 C.ar      1 <0>        -0.1500
      3 C3         -7.0653    3.6702  -25.0643 C.ar      1 <0>        -0.1500
      4 C4         -8.0938    3.9388  -24.1514 C.ar      1 <0>        -0.1435
      5 C5         -6.3018    2.5006  -24.9569 C.ar      1 <0>        -0.1435
      6 C6         -8.3599    3.0459  -23.0911 C.ar      1 <0>         0.1000
      7 C7         -2.0427   -1.4451  -23.7728 C.2       1 <0>         0.5690
      8 C8         -0.5058   -1.4249  -25.5097 C.2       1 <0>         0.5690
      9 C9         -3.2937    0.6650  -25.7726 C.2       1 <0>         0.5690
     10 C10        -2.7666   -3.9468  -25.4293 C.3       1 <0>         0.0000
     11 C11        -1.5908   -4.0301  -26.4141 C.3       1 <0>         0.0000
     12 C12       -10.3422    4.9182  -23.7572 C.3       1 <0>         0.0000
     13 C13        -0.8994   -4.9566  -24.3624 C.3       1 <0>         0.0000
     14 C14        -8.2476    6.1512  -22.1635 C.3       1 <0>         0.2800
     15 C15        -8.9347    5.1938  -24.2828 C.3       1 <0>         0.4235
     16 C16        -1.3236   -2.7583  -23.6771 C.3       1 <0>         0.0610
     17 C17        -0.2202   -2.6984  -24.7441 C.3       1 <0>         0.0610
     18 C18        -2.0870   -4.0394  -24.0462 C.3       1 <0>         0.0000
     19 C19        -0.3746   -4.0429  -25.4816 C.3       1 <0>         0.0000
     20 C20       -10.1963    4.5093  -22.2907 C.3       1 <0>         0.3691
     21 C21        -9.5347    5.6471  -21.5022 C.3       1 <0>         0.2800
     22 C22        -5.2682    2.1795  -26.0032 C.3       1 <0>         0.4436
     23 C23        -1.9141    0.6181  -25.1428 C.3       1 <0>         0.3611
     24 N1         -9.3982    3.2898  -22.1952 N.pl3     1 <0>        -0.8691
     25 N2         -1.5144   -0.7498  -24.8433 N.am      1 <0>        -0.4201
     26 N3         -3.9713    1.8344  -25.4468 N.am      1 <0>        -0.7301
     27 O1         -2.9282   -1.0873  -23.0092 O.2       1 <0>        -0.5700
     28 O2          0.0994   -1.0757  -26.5135 O.2       1 <0>        -0.5700
     29 O3         -3.7160   -0.2167  -26.5158 O.2       1 <0>        -0.5700
     30 O4         -8.3640    6.3076  -23.5829 O.3       1 <0>        -0.5600
     31 O5        -10.4698    6.7264  -21.4286 O.3       1 <0>        -0.6800
     32 H1         -6.0186    0.6812  -23.8195 H         1 <0>         0.1500
     33 H2         -7.7895    1.1630  -22.1964 H         1 <0>         0.1500
     34 H3         -6.8765    4.3682  -25.8770 H         1 <0>         0.1500
     35 H4         -3.3494   -3.0321  -25.5628 H         1 <0>         0.0000
     36 H5         -3.4378   -4.7988  -25.5874 H         1 <0>         0.0000
     37 H6         -1.6417   -4.9685  -26.9803 H         1 <0>         0.0000
     38 H7         -1.5814   -3.2112  -27.1369 H         1 <0>         0.0000
     39 H8        -10.9630    5.8178  -23.8418 H         1 <0>         0.0000
     40 H9        -10.8274    4.1213  -24.3348 H         1 <0>         0.0000
     41 H10        -0.2006   -5.0656  -23.5258 H         1 <0>         0.0000
     42 H11        -1.2012   -5.9492  -24.7143 H         1 <0>         0.0000
     43 H12        -7.9705    7.1315  -21.7613 H         1 <0>         0.0000
     44 H13        -7.4115    5.4755  -21.9524 H         1 <0>         0.0000
     45 H14        -9.0070    5.4778  -25.3390 H         1 <0>         0.0000
     46 H15        -0.8792   -2.8423  -22.6781 H         1 <0>         0.0000
     47 H16         0.7632   -2.6155  -24.2686 H         1 <0>         0.0000
     48 H17        -2.7562   -4.3899  -23.2579 H         1 <0>         0.0000
     49 H18         0.5426   -4.3899  -25.9619 H         1 <0>         0.0000
     50 H19       -11.1931    4.3099  -21.8797 H         1 <0>         0.0000
     51 H20        -9.3254    5.3344  -20.4729 H         1 <0>         0.0000
     52 H21        -5.6398    1.3696  -26.6396 H         1 <0>         0.0000
     53 H22        -5.0921    3.0495  -26.6457 H         1 <0>         0.0000
     54 H23        -1.2047    1.0715  -25.8424 H         1 <0>         0.0000
     55 H24        -1.9066    1.1827  -24.2044 H         1 <0>         0.0000
     56 H25        -9.4827    2.7085  -21.3699 H         1 <0>         0.4000
     57 H26        -3.5285    2.5135  -24.8339 H         1 <0>         0.3700
     58 H27       -10.0589    7.4391  -20.9109 H         1 <0>         0.4000
@<TRIPOS>BOND
     1    1    2 ar
     2    1    5 ar
     3    2    6 ar
     4    3    4 ar
     5    3    5 ar
     6    4    6 ar
     7    4   15 1
     8    5   22 1
     9    6   24 1
    10    7   16 1
    11    7   25 am
    12    7   27 2
    13    8   17 1
    14    8   25 am
    15    8   28 2
    16    9   23 1
    17    9   26 am
    18    9   29 2
    19   10   11 1
    20   10   18 1
    21   11   19 1
    22   12   15 1
    23   12   20 1
    24   13   18 1
    25   13   19 1
    26   14   21 1
    27   14   30 1
    28   15   30 1
    29   16   17 1
    30   16   18 1
    31   17   19 1
    32   20   21 1
    33   20   24 1
    34   21   31 1
    35   22   26 1
    36   23   25 1
    37    1   32 1
    38    2   33 1
    39    3   34 1
    40   10   35 1
    41   10   36 1
    42   11   37 1
    43   11   38 1
    44   12   39 1
    45   12   40 1
    46   13   41 1
    47   13   42 1
    48   14   43 1
    49   14   44 1
    50   15   45 1
    51   16   46 1
    52   17   47 1
    53   18   48 1
    54   19   49 1
    55   20   50 1
    56   21   51 1
    57   22   52 1
    58   22   53 1
    59   23   54 1
    60   23   55 1
    61   24   56 1
    62   26   57 1
    63   31   58 1
