@<TRIPOS>MOLECULE
Lig3
   27    29     0     0     0
SMALL
USER_CHARGES

@<TRIPOS>ATOM
      1 C1         -7.7593    1.8624  -22.9573 C.ar      1 <0>        -0.1500
      2 C2         -6.7067    1.6645  -23.8518 C.ar      1 <0>        -0.1500
      3 C3         -7.1743    3.7984  -24.8915 C.ar      1 <0>        -0.1500
      4 C4         -8.2218    4.0024  -23.9871 C.ar      1 <0>        -0.1435
      5 C5         -8.5254    3.0332  -23.0036 C.ar      1 <0>         0.1000
      6 C6         -6.4275    2.6306  -24.8120 C.ar      1 <0>         0.1900
      7 C7        -10.4239    5.0128  -23.5575 C.3       1 <0>         0.0000
      8 C8         -9.2172    6.5484  -21.7496 C.3       1 <0>         0.2800
      9 C9         -8.9810    5.3183  -23.9737 C.3       1 <0>         0.1435
     10 C10        -8.3061    6.2401  -22.9354 C.3       1 <0>         0.2800
     11 C11       -10.3595    4.4550  -22.1332 C.3       1 <0>         0.6491
     12 N1         -9.5929    3.2131  -22.1286 N.pl3     1 <0>        -0.8691
     13 O1         -9.7956    5.3743  -21.1888 O.3       1 <0>        -0.5600
     14 O2         -7.9235    7.4529  -23.5720 O.3       1 <0>        -0.6800
     15 F1         -5.4122    2.4400  -25.6653 F         1 <0>        -0.1900
     16 H1         -7.9703    1.1003  -22.2113 H         1 <0>         0.1500
     17 H2         -6.1063    0.7624  -23.7956 H         1 <0>         0.1500
     18 H3         -6.9290    4.5487  -25.6372 H         1 <0>         0.1500
     19 H4        -11.0298    5.9257  -23.5947 H         1 <0>         0.0000
     20 H5        -10.8856    4.2875  -24.2400 H         1 <0>         0.0000
     21 H6         -8.6402    7.0467  -20.9625 H         1 <0>         0.0000
     22 H7        -10.0113    7.2536  -22.0234 H         1 <0>         0.0000
     23 H8         -8.9786    5.7589  -24.9780 H         1 <0>         0.0000
     24 H9         -7.3853    5.7813  -22.5517 H         1 <0>         0.0000
     25 H10       -11.3729    4.2292  -21.7859 H         1 <0>         0.0000
     26 H11        -9.6935    2.5802  -21.3447 H         1 <0>         0.4000
     27 H12        -7.4709    7.9965  -22.9052 H         1 <0>         0.4000
@<TRIPOS>BOND
     1    1    2 ar
     2    1    5 ar
     3    2    6 ar
     4    3    4 ar
     5    3    6 ar
     6    4    5 ar
     7    4    9 1
     8    5   12 1
     9    6   15 1
    10    7    9 1
    11    7   11 1
    12    8   10 1
    13    8   13 1
    14    9   10 1
    15   10   14 1
    16   11   12 1
    17   11   13 1
    18    1   16 1
    19    2   17 1
    20    3   18 1
    21    7   19 1
    22    7   20 1
    23    8   21 1
    24    8   22 1
    25    9   23 1
    26   10   24 1
    27   11   25 1
    28   12   26 1
    29   14   27 1
