@<TRIPOS>MOLECULE
Lig4
   34    36     0     0     0
SMALL
USER_CHARGES

@<TRIPOS>ATOM
      1 C1         -8.0884    4.0843  -25.0705 C.ar      1 <0>        -0.1500
      2 C2         -8.1407    2.9699  -22.4871 C.ar      1 <0>        -0.1500
      3 C3         -8.9542    4.6176  -24.0941 C.ar      1 <0>        -0.1435
      4 C4         -9.0013    4.0463  -22.7875 C.ar      1 <0>         0.1000
      5 C5         -7.2793    3.0249  -24.7274 C.ar      1 <0>         0.0825
      6 C6         -7.3007    2.4854  -23.4683 C.ar      1 <0>         0.0825
      7 C7        -10.3091    7.2214  -22.4249 C.2       1 <0>         0.5690
      8 C8         -9.7465    5.8506  -24.4715 C.3       1 <0>         0.4436
      9 C9        -11.5045    6.3162  -22.1777 C.3       1 <0>         0.0610
     10 C10       -11.2569    4.8136  -22.0857 C.3       1 <0>         0.3691
     11 C11        -5.8712    1.3873  -24.6626 C.3       1 <0>         0.5600
     12 C12        -7.1493    7.2962  -22.8563 C.3       1 <0>         0.0000
     13 C13        -8.3000    7.7636  -23.7372 C.3       1 <0>         0.3001
     14 N1         -9.8828    4.4611  -21.7891 N.pl3     1 <0>        -0.8691
     15 N2         -9.5149    6.9627  -23.5412 N.am      1 <0>        -0.6602
     16 O1        -10.1002    8.1569  -21.6457 O.2       1 <0>        -0.5700
     17 O2         -6.3840    2.4068  -25.5435 O.3       1 <0>        -0.3625
     18 O3         -6.4258    1.4523  -23.3330 O.3       1 <0>        -0.3625
     19 H1         -8.0373    4.5090  -26.0683 H         1 <0>         0.1500
     20 H2         -8.1472    2.5111  -21.5021 H         1 <0>         0.1500
     21 H3         -9.4750    6.2029  -25.4743 H         1 <0>         0.0000
     22 H4        -10.8099    5.6080  -24.5359 H         1 <0>         0.0000
     23 H5        -11.9461    6.6418  -21.2256 H         1 <0>         0.0000
     24 H6        -12.2655    6.5274  -22.9384 H         1 <0>         0.0000
     25 H7        -11.8845    4.4195  -21.2761 H         1 <0>         0.0000
     26 H8        -11.6189    4.2950  -22.9819 H         1 <0>         0.0000
     27 H9         -6.1058    0.4066  -25.0920 H         1 <0>         0.0000
     28 H10        -4.7827    1.4944  -24.5956 H         1 <0>         0.0000
     29 H11        -6.8349    6.2804  -23.1112 H         1 <0>         0.0000
     30 H12        -6.2849    7.9547  -22.9809 H         1 <0>         0.0000
     31 H13        -7.4306    7.3001  -21.7982 H         1 <0>         0.0000
     32 H14        -8.5321    8.8058  -23.4899 H         1 <0>         0.0000
     33 H15        -8.0102    7.7362  -24.7929 H         1 <0>         0.0000
     34 H16        -9.6681    4.1859  -20.8366 H         1 <0>         0.4000
@<TRIPOS>BOND
     1    1    3 ar
     2    1    5 ar
     3    2    4 ar
     4    2    6 ar
     5    3    4 ar
     6    3    8 1
     7    4   14 1
     8    5    6 ar
     9    5   17 1
    10    6   18 1
    11    7    9 1
    12    7   15 am
    13    7   16 2
    14    8   15 1
    15    9   10 1
    16   10   14 1
    17   11   17 1
    18   11   18 1
    19   12   13 1
    20   13   15 1
    21    1   19 1
    22    2   20 1
    23    8   21 1
    24    8   22 1
    25    9   23 1
    26    9   24 1
    27   10   25 1
    28   10   26 1
    29   11   27 1
    30   11   28 1
    31   12   29 1
    32   12   30 1
    33   12   31 1
    34   13   32 1
    35   13   33 1
    36   14   34 1
