@<TRIPOS>MOLECULE
Lig40
   58    63     0     0     0
SMALL
USER_CHARGES

@<TRIPOS>ATOM
      1 C1         -6.6034    1.6161  -23.9208 C.ar      1 <0>        -0.1500
      2 C2         -7.6166    1.8860  -22.9956 C.ar      1 <0>        -0.1500
      3 C3         -7.0869    3.6835  -25.0634 C.ar      1 <0>        -0.1500
      4 C4         -8.1144    3.9496  -24.1491 C.ar      1 <0>        -0.1435
      5 C5         -6.3243    2.5136  -24.9593 C.ar      1 <0>        -0.1435
      6 C6         -8.3800    3.0541  -23.0908 C.ar      1 <0>         0.1000
      7 C7         -0.5944   -1.3618  -25.6738 C.2       1 <0>         0.5690
      8 C8         -1.9429   -1.4609  -23.7935 C.2       1 <0>         0.5690
      9 C9         -3.3065    0.6969  -25.7399 C.2       1 <0>         0.5690
     10 C10        -0.3750   -5.1999  -25.2594 C.3       1 <0>         0.0000
     11 C11        -1.2088   -5.2632  -23.9657 C.3       1 <0>         0.0000
     12 C12       -10.3595    4.9320  -23.7487 C.3       1 <0>         0.0000
     13 C13        -2.3538   -3.9387  -25.5683 C.3       1 <0>         0.0000
     14 C14        -8.2589    6.1561  -22.1551 C.3       1 <0>         0.2800
     15 C15        -8.9525    5.2066  -24.2758 C.3       1 <0>         0.4235
     16 C16        -0.3353   -2.7204  -25.0770 C.3       1 <0>         0.0610
     17 C17        -1.2050   -2.7760  -23.8131 C.3       1 <0>         0.0610
     18 C18        -0.8638   -3.8967  -25.9189 C.3       1 <0>         0.0000
     19 C19        -2.0970   -4.0052  -24.0611 C.3       1 <0>         0.0000
     20 C20       -10.2118    4.5194  -22.2833 C.3       1 <0>         0.3691
     21 C21        -9.5470    5.6546  -21.4939 C.3       1 <0>         0.2800
     22 C22        -5.2842    2.1997  -26.0008 C.3       1 <0>         0.4436
     23 C23        -1.9374    0.6611  -25.0883 C.3       1 <0>         0.3611
     24 N1         -9.4159    3.2980  -22.1919 N.pl3     1 <0>        -0.8691
     25 N2         -1.5088   -0.7115  -24.8698 N.am      1 <0>        -0.4201
     26 N3         -3.9898    1.8668  -25.4327 N.am      1 <0>        -0.7301
     27 O1         -0.0517   -0.9483  -26.6888 O.2       1 <0>        -0.5700
     28 O2         -2.7755   -1.1496  -22.9532 O.2       1 <0>        -0.5700
     29 O3         -3.7150   -0.1887  -26.4862 O.2       1 <0>        -0.5700
     30 O4         -8.3771    6.3167  -23.5739 O.3       1 <0>        -0.5600
     31 O5        -10.4796    6.7361  -21.4198 O.3       1 <0>        -0.6800
     32 H1         -6.0411    0.6902  -23.8280 H         1 <0>         0.1500
     33 H2         -7.8109    1.1671  -22.2028 H         1 <0>         0.1500
     34 H3         -6.8968    4.3847  -25.8730 H         1 <0>         0.1500
     35 H4          0.7006   -5.1933  -25.0565 H         1 <0>         0.0000
     36 H5         -0.5980   -6.0654  -25.8937 H         1 <0>         0.0000
     37 H6         -1.8147   -6.1756  -23.9545 H         1 <0>         0.0000
     38 H7         -0.5763   -5.2632  -23.0720 H         1 <0>         0.0000
     39 H8        -10.9789    5.8328  -23.8304 H         1 <0>         0.0000
     40 H9        -10.8468    4.1370  -24.3272 H         1 <0>         0.0000
     41 H10        -2.9078   -3.0503  -25.8828 H         1 <0>         0.0000
     42 H11        -2.8607   -4.8302  -25.9548 H         1 <0>         0.0000
     43 H12        -7.9781    7.1346  -21.7509 H         1 <0>         0.0000
     44 H13        -7.4246    5.4773  -21.9468 H         1 <0>         0.0000
     45 H14        -9.0256    5.4938  -25.3310 H         1 <0>         0.0000
     46 H15         0.7314   -2.8090  -24.8464 H         1 <0>         0.0000
     47 H16        -0.6067   -2.8602  -22.9003 H         1 <0>         0.0000
     48 H17        -0.6429   -3.8277  -26.9861 H         1 <0>         0.0000
     49 H18        -2.9946   -4.0468  -23.4408 H         1 <0>         0.0000
     50 H19       -11.2083    4.3210  -21.8711 H         1 <0>         0.0000
     51 H20        -9.3379    5.3407  -20.4649 H         1 <0>         0.0000
     52 H21        -5.6450    1.3854  -26.6377 H         1 <0>         0.0000
     53 H22        -5.1106    3.0699  -26.6435 H         1 <0>         0.0000
     54 H23        -1.2325    1.1700  -25.7538 H         1 <0>         0.0000
     55 H24        -1.9628    1.1723  -24.1207 H         1 <0>         0.0000
     56 H25        -9.4966    2.7175  -21.3658 H         1 <0>         0.4000
     57 H26        -3.5548    2.5517  -24.8209 H         1 <0>         0.3700
     58 H27       -10.0637    7.4515  -20.9099 H         1 <0>         0.4000
@<TRIPOS>BOND
     1    1    2 ar
     2    1    5 ar
     3    2    6 ar
     4    3    4 ar
     5    3    5 ar
     6    4    6 ar
     7    4   15 1
     8    5   22 1
     9    6   24 1
    10    7   16 1
    11    7   25 am
    12    7   27 2
    13    8   17 1
    14    8   25 am
    15    8   28 2
    16    9   23 1
    17    9   26 am
    18    9   29 2
    19   10   11 1
    20   10   18 1
    21   11   19 1
    22   12   15 1
    23   12   20 1
    24   13   18 1
    25   13   19 1
    26   14   21 1
    27   14   30 1
    28   15   30 1
    29   16   17 1
    30   16   18 1
    31   17   19 1
    32   20   21 1
    33   20   24 1
    34   21   31 1
    35   22   26 1
    36   23   25 1
    37    1   32 1
    38    2   33 1
    39    3   34 1
    40   10   35 1
    41   10   36 1
    42   11   37 1
    43   11   38 1
    44   12   39 1
    45   12   40 1
    46   13   41 1
    47   13   42 1
    48   14   43 1
    49   14   44 1
    50   15   45 1
    51   16   46 1
    52   17   47 1
    53   18   48 1
    54   19   49 1
    55   20   50 1
    56   21   51 1
    57   22   52 1
    58   22   53 1
    59   23   54 1
    60   23   55 1
    61   24   56 1
    62   26   57 1
    63   31   58 1
