@<TRIPOS>MOLECULE
Lig7
   29    31     0     0     0
SMALL
USER_CHARGES

@<TRIPOS>ATOM
      1 C1         -2.2904   -2.1123  -24.3539 C.2       1 <0>         0.5690
      2 C2         -1.4128   -2.7870  -26.3947 C.2       1 <0>         0.5690
      3 C3         -2.7463    0.1961  -26.6224 C.2       1 <0>         0.6590
      4 C4          0.0817   -3.5503  -23.2993 C.3       1 <0>         0.0000
      5 C5          0.6612   -3.9816  -24.6542 C.3       1 <0>         0.0000
      6 C6         -0.9630   -5.5671  -23.9675 C.3       1 <0>         0.0000
      7 C7         -2.2697   -3.6156  -24.2931 C.3       1 <0>         0.0610
      8 C8         -1.6882   -4.0614  -25.6455 C.3       1 <0>         0.0610
      9 C9         -1.2957   -4.2403  -23.2741 C.3       1 <0>         0.0000
     10 C10        -0.4479   -4.8798  -25.2374 C.3       1 <0>         0.0000
     11 C11        -1.5237   -0.3409  -25.9265 C.3       1 <0>         0.3611
     12 N1         -1.7442   -1.7316  -25.5657 N.am      1 <0>        -0.4201
     13 O1         -2.7165   -1.3929  -23.4615 O.2       1 <0>        -0.5700
     14 O2         -0.9597   -2.7441  -27.5297 O.2       1 <0>        -0.5700
     15 O3         -3.8136   -0.3806  -26.7655 O.2       1 <0>        -0.5700
     16 O4         -2.5041    1.4569  -27.0642 O.3       1 <0>        -0.6500
     17 H1          0.0306   -2.4631  -23.1944 H         1 <0>         0.0000
     18 H2          0.7148   -3.9288  -22.4882 H         1 <0>         0.0000
     19 H3          0.9137   -3.1275  -25.2889 H         1 <0>         0.0000
     20 H4          1.5811   -4.5568  -24.4997 H         1 <0>         0.0000
     21 H5         -0.1924   -6.1463  -23.4474 H         1 <0>         0.0000
     22 H6         -1.8412   -6.1982  -24.1411 H         1 <0>         0.0000
     23 H7         -3.2891   -3.9966  -24.1663 H         1 <0>         0.0000
     24 H8         -2.4133   -4.6694  -26.1978 H         1 <0>         0.0000
     25 H9         -1.7150   -4.3301  -22.2698 H         1 <0>         0.0000
     26 H10        -0.0920   -5.5511  -26.0217 H         1 <0>         0.0000
     27 H11        -0.6678   -0.2811  -26.6056 H         1 <0>         0.0000
     28 H12        -1.3440    0.2445  -25.0198 H         1 <0>         0.0000
     29 H13        -3.2865    1.8421  -27.5124 H         1 <0>         0.5000
@<TRIPOS>BOND
     1    1    7 1
     2    1   12 am
     3    1   13 2
     4    2    8 1
     5    2   12 am
     6    2   14 2
     7    3   11 1
     8    3   15 2
     9    3   16 1
    10    4    5 1
    11    4    9 1
    12    5   10 1
    13    6    9 1
    14    6   10 1
    15    7    8 1
    16    7    9 1
    17    8   10 1
    18   11   12 1
    19    4   17 1
    20    4   18 1
    21    5   19 1
    22    5   20 1
    23    6   21 1
    24    6   22 1
    25    7   23 1
    26    8   24 1
    27    9   25 1
    28   10   26 1
    29   11   27 1
    30   11   28 1
    31   16   29 1
