@<TRIPOS>MOLECULE
Lig8
   35    36     0     0     0
SMALL
USER_CHARGES

@<TRIPOS>ATOM
      1 C1         -7.2840    2.3447  -24.4345 C.ar      1 <0>        -0.1500
      2 C2         -7.5305    3.6643  -24.7853 C.ar      1 <0>        -0.1500
      3 C3         -6.0768    1.7482  -24.7881 C.ar      1 <0>        -0.1500
      4 C4         -6.5442    4.3384  -25.4815 C.ar      1 <0>         0.1600
      5 C5         -5.1273    2.5066  -25.4724 C.ar      1 <0>         0.1665
      6 C6         -2.7891   -1.4179  -24.4507 C.2       1 <0>         0.6300
      7 C7         -3.1340   -0.4346  -25.5478 C.2       1 <0>         0.6300
      8 C8         -0.6383   -5.5857  -24.7928 C.3       1 <0>         0.0000
      9 C9          0.1922   -4.3546  -24.4728 C.3       1 <0>         0.0000
     10 C10        -2.0901   -5.1080  -24.7703 C.3       1 <0>         0.0000
     11 C11        -0.6748   -3.6094  -23.4715 C.3       1 <0>         0.0000
     12 C12        -2.0904   -3.7619  -24.0317 C.3       1 <0>         0.3001
     13 C13        -3.8078    1.9312  -25.9160 C.3       1 <0>         0.4436
     14 N1         -5.3561    3.7950  -25.8310 N.ar      1 <0>        -0.6200
     15 N2         -2.4236   -2.6608  -24.9266 N.am      1 <0>        -0.7301
     16 N3         -3.3370    0.8456  -25.0758 N.am      1 <0>        -0.7301
     17 O1         -2.8634   -1.0649  -23.2833 O.2       1 <0>        -0.5700
     18 O2         -3.2213   -0.8279  -26.7008 O.2       1 <0>        -0.5700
     19 H1         -8.0301    1.7760  -23.8876 H         1 <0>         0.1500
     20 H2         -8.4651    4.1477  -24.5260 H         1 <0>         0.1500
     21 H3         -5.8984    0.7120  -24.5197 H         1 <0>         0.1500
     22 H4         -6.6875    5.3681  -25.7907 H         1 <0>         0.1500
     23 H5         -0.3639   -6.0332  -25.7526 H         1 <0>         0.0000
     24 H6         -0.4911   -6.3454  -24.0155 H         1 <0>         0.0000
     25 H7          1.1730   -4.6101  -24.0622 H         1 <0>         0.0000
     26 H8          0.3427   -3.7504  -25.3751 H         1 <0>         0.0000
     27 H9         -2.4857   -5.0238  -25.7888 H         1 <0>         0.0000
     28 H10        -2.7118   -5.8408  -24.2435 H         1 <0>         0.0000
     29 H11        -0.6119   -4.1009  -22.4931 H         1 <0>         0.0000
     30 H12        -0.3569   -2.5695  -23.3496 H         1 <0>         0.0000
     31 H13        -2.8275   -3.7561  -23.2208 H         1 <0>         0.0000
     32 H14        -3.8988    1.5911  -26.9528 H         1 <0>         0.0000
     33 H15        -3.0380    2.7094  -25.8743 H         1 <0>         0.0000
     34 H16        -2.3724   -2.8110  -25.9305 H         1 <0>         0.3700
     35 H17        -3.1946    1.0370  -24.0879 H         1 <0>         0.3700
@<TRIPOS>BOND
     1    1    2 ar
     2    1    3 ar
     3    2    4 ar
     4    3    5 ar
     5    4   14 ar
     6    5   13 1
     7    5   14 ar
     8    6    7 1
     9    6   15 am
    10    6   17 2
    11    7   16 am
    12    7   18 2
    13    8    9 1
    14    8   10 1
    15    9   11 1
    16   10   12 1
    17   11   12 1
    18   12   15 1
    19   13   16 1
    20    1   19 1
    21    2   20 1
    22    3   21 1
    23    4   22 1
    24    8   23 1
    25    8   24 1
    26    9   25 1
    27    9   26 1
    28   10   27 1
    29   10   28 1
    30   11   29 1
    31   11   30 1
    32   12   31 1
    33   13   32 1
    34   13   33 1
    35   15   34 1
    36   16   35 1
