Z8539_2001
  -OEChem-03182414553D

 40 43  0     1  0  0  0  0  0999 V2000
  -45.6966  -25.6444   -0.1929 C   0  0  0  0  0  0  0  0  0  0  0  0
  -47.5004  -29.1121    5.0286 C   0  0  0  0  0  0  0  0  0  0  0  0
  -46.0794  -26.8862    0.3139 C   0  0  0  0  0  0  0  0  0  0  0  0
  -48.2468  -29.1595    6.2179 C   0  0  0  0  0  0  0  0  0  0  0  0
  -44.3426  -25.3332   -0.3543 C   0  0  0  0  0  0  0  0  0  0  0  0
  -49.5272  -29.3248    3.6986 C   0  0  0  0  0  0  0  0  0  0  0  0
  -51.8197  -29.5269    6.3411 C   0  0  0  0  0  0  0  0  0  0  0  0
  -48.1251  -29.2027    3.7790 C   0  0  0  0  0  0  0  0  0  0  0  0
  -45.0966  -27.8038    0.6695 C   0  0  0  0  0  0  0  0  0  0  0  0
  -43.7479  -27.4905    0.5231 C   0  0  0  0  0  0  0  0  0  0  0  0
  -50.2825  -29.3806    4.8770 C   0  0  0  0  0  0  0  0  0  0  0  0
  -49.6307  -29.3009    6.1005 C   0  0  0  0  0  0  0  0  0  0  0  0
  -43.3667  -26.2631    0.0065 C   0  0  0  0  0  0  0  0  0  0  0  0
  -47.4007  -29.1978    2.4825 C   0  0  0  0  0  0  0  0  0  0  0  0
  -43.5083  -30.5429    2.5138 C   0  0  0  0  0  0  0  0  0  0  0  0
  -42.8641  -28.5894    1.0124 C   0  0  0  0  0  0  0  0  0  0  0  0
  -45.2891  -29.1884    1.2211 C   0  0  1  0  0  0  0  0  0  0  0  0
  -43.8454  -29.7566    1.2628 C   0  0  2  0  0  0  0  0  0  0  0  0
  -51.6391  -29.5155    5.0409 N   0  0  0  0  0  0  0  0  0  0  0  0
  -50.6410  -29.3959    7.0227 N   0  0  0  0  0  0  0  0  0  0  0  0
  -46.0109  -29.1736    2.4857 N   0  0  0  0  0  0  0  0  0  0  0  0
  -48.0680  -29.2255    1.4478 O   0  0  0  0  0  0  0  0  0  0  0  0
  -42.7355  -30.1957    3.3944 O   0  0  0  0  0  0  0  0  0  0  0  0
  -42.0402  -25.9852   -0.1410 O   0  0  0  0  0  0  0  0  0  0  0  0
  -44.1851  -31.7196    2.5340 O   0  0  0  0  0  0  0  0  0  0  0  0
  -46.4569  -24.9175   -0.4643 H   0  0  0  0  0  0  0  0  0  0  0  0
  -46.4240  -29.0039    5.1236 H   0  0  0  0  0  0  0  0  0  0  0  0
  -47.1336  -27.1118    0.4252 H   0  0  0  0  0  0  0  0  0  0  0  0
  -47.7617  -29.0952    7.1858 H   0  0  0  0  0  0  0  0  0  0  0  0
  -44.0651  -24.3636   -0.7571 H   0  0  0  0  0  0  0  0  0  0  0  0
  -50.0441  -29.3902    2.7462 H   0  0  0  0  0  0  0  0  0  0  0  0
  -52.7699  -29.6273    6.8446 H   0  0  0  0  0  0  0  0  0  0  0  0
  -42.1318  -28.8686    0.2468 H   0  0  0  0  0  0  0  0  0  0  0  0
  -42.3354  -28.2683    1.9143 H   0  0  0  0  0  0  0  0  0  0  0  0
  -45.8666  -29.7778    0.4973 H   0  0  0  0  0  0  0  0  0  0  0  0
  -43.7217  -30.4505    0.4171 H   0  0  0  0  0  0  0  0  0  0  0  0
  -50.5351  -29.3809    8.0276 H   0  0  0  0  0  0  0  0  0  0  0  0
  -45.4809  -29.1118    3.3482 H   0  0  0  0  0  0  0  0  0  0  0  0
  -41.9542  -25.1012   -0.5366 H   0  0  0  0  0  0  0  0  0  0  0  0
  -43.9724  -32.2421    3.3366 H   0  0  0  0  0  0  0  0  0  0  0  0
  1  3  1  0  0  0  0
  1  5  2  0  0  0  0
  2  4  2  0  0  0  0
  2  8  1  0  0  0  0
  3  9  2  0  0  0  0
  4 12  1  0  0  0  0
  5 13  1  0  0  0  0
  6  8  2  0  0  0  0
  6 11  1  0  0  0  0
  7 19  2  0  0  0  0
  7 20  1  0  0  0  0
  8 14  1  0  0  0  0
  9 10  1  0  0  0  0
  9 17  1  0  0  0  0
 10 13  2  0  0  0  0
 10 16  1  0  0  0  0
 11 12  2  0  0  0  0
 11 19  1  0  0  0  0
 12 20  1  0  0  0  0
 13 24  1  0  0  0  0
 14 21  1  0  0  0  0
 14 22  2  0  0  0  0
 15 18  1  0  0  0  0
 15 23  2  0  0  0  0
 15 25  1  0  0  0  0
 16 18  1  0  0  0  0
 17 18  1  0  0  0  0
 17 21  1  0  0  0  0
  1 26  1  0  0  0  0
  2 27  1  0  0  0  0
  3 28  1  0  0  0  0
  4 29  1  0  0  0  0
  5 30  1  0  0  0  0
  6 31  1  0  0  0  0
  7 32  1  0  0  0  0
 16 33  1  0  0  0  0
 16 34  1  0  0  0  0
 17 35  1  0  0  0  0
 18 36  1  0  0  0  0
 20 37  1  0  0  0  0
 21 38  1  0  0  0  0
 24 39  1  0  0  0  0
 25 40  1  0  0  0  0
M  END
$$$$
