Z8507
  -OEChem-03122418213D

 38 40  0     1  0  0  0  0  0999 V2000
  -44.4270  -25.6238   -0.9746 C   0  0  0  0  0  0  0  0  0  0  0  0
  -45.7960  -25.7206   -0.6850 C   0  0  0  0  0  0  0  0  0  0  0  0
  -47.7540  -28.7094    5.0590 C   0  0  0  0  0  0  0  0  0  0  0  0
  -43.5204  -26.5395   -0.4377 C   0  0  0  0  0  0  0  0  0  0  0  0
  -46.2765  -26.7298    0.1511 C   0  0  0  0  0  0  0  0  0  0  0  0
  -48.4054  -28.7695    6.2962 C   0  0  0  0  0  0  0  0  0  0  0  0
  -50.5258  -28.9733    5.1821 C   0  0  0  0  0  0  0  0  0  0  0  0
  -48.4855  -28.7846    3.8667 C   0  0  0  0  0  0  0  0  0  0  0  0
  -44.0049  -27.5343    0.3957 C   0  0  0  0  0  0  0  0  0  0  0  0
  -45.3699  -27.6253    0.6957 C   0  0  0  0  0  0  0  0  0  0  0  0
  -49.7954  -28.9039    6.3722 C   0  0  0  0  0  0  0  0  0  0  0  0
  -49.8775  -28.9116    3.9437 C   0  0  0  0  0  0  0  0  0  0  0  0
  -47.8091  -28.7954    2.5406 C   0  0  0  0  0  0  0  0  0  0  0  0
  -44.0611  -30.6127    2.3777 C   0  0  0  0  0  0  0  0  0  0  0  0
  -43.2311  -28.6466    1.0323 C   0  0  0  0  0  0  0  0  0  0  0  0
  -45.6429  -28.8229    1.5569 C   0  0  1  0  0  0  0  0  0  0  0  0
  -44.2270  -29.1373    2.0947 C   0  0  1  0  0  0  0  0  0  0  0  0
  -50.4330  -29.0016    7.5996 N   0  0  0  0  0  0  0  0  0  0  0  0
  -48.3816  -29.0290    1.4885 O   0  0  0  0  0  0  0  0  0  0  0  0
  -44.5532  -31.5240    1.7285 O   0  0  0  0  0  0  0  0  0  0  0  0
  -50.6250  -28.9847    2.7994 O   0  0  0  0  0  0  0  0  0  0  0  0
  -43.2716  -30.8057    3.4633 O   0  0  0  0  0  0  0  0  0  0  0  0
  -46.4835  -28.5534    2.6874 O   0  0  0  0  0  0  0  0  0  0  0  0
  -44.0722  -24.8349   -1.6319 H   0  0  0  0  0  0  0  0  0  0  0  0
  -46.4907  -25.0099   -1.1242 H   0  0  0  0  0  0  0  0  0  0  0  0
  -46.6707  -28.6221    5.0623 H   0  0  0  0  0  0  0  0  0  0  0  0
  -42.4645  -26.4734   -0.6764 H   0  0  0  0  0  0  0  0  0  0  0  0
  -47.3394  -26.8083    0.3500 H   0  0  0  0  0  0  0  0  0  0  0  0
  -47.8103  -28.7215    7.2058 H   0  0  0  0  0  0  0  0  0  0  0  0
  -51.6075  -29.0843    5.2199 H   0  0  0  0  0  0  0  0  0  0  0  0
  -42.9918  -29.4192    0.2937 H   0  0  0  0  0  0  0  0  0  0  0  0
  -42.3079  -28.2865    1.4969 H   0  0  0  0  0  0  0  0  0  0  0  0
  -46.0397  -29.6441    0.9466 H   0  0  0  0  0  0  0  0  0  0  0  0
  -44.0730  -28.5862    3.0348 H   0  0  0  0  0  0  0  0  0  0  0  0
  -49.9061  -28.9160    8.4586 H   0  0  0  0  0  0  0  0  0  0  0  0
  -51.4401  -29.0830    7.6465 H   0  0  0  0  0  0  0  0  0  0  0  0
  -51.5620  -29.0783    3.0381 H   0  0  0  0  0  0  0  0  0  0  0  0
  -43.1694  -31.7589    3.6704 H   0  0  0  0  0  0  0  0  0  0  0  0
  1  2  1  0  0  0  0
  1  4  2  0  0  0  0
  2  5  2  0  0  0  0
  3  6  2  0  0  0  0
  3  8  1  0  0  0  0
  4  9  1  0  0  0  0
  5 10  1  0  0  0  0
  6 11  1  0  0  0  0
  7 11  2  0  0  0  0
  7 12  1  0  0  0  0
  8 12  2  0  0  0  0
  8 13  1  0  0  0  0
  9 10  2  0  0  0  0
  9 15  1  0  0  0  0
 10 16  1  0  0  0  0
 11 18  1  0  0  0  0
 12 21  1  0  0  0  0
 13 19  2  0  0  0  0
 13 23  1  0  0  0  0
 14 17  1  0  0  0  0
 14 20  2  0  0  0  0
 14 22  1  0  0  0  0
 15 17  1  0  0  0  0
 16 17  1  0  0  0  0
 16 23  1  0  0  0  0
  1 24  1  0  0  0  0
  2 25  1  0  0  0  0
  3 26  1  0  0  0  0
  4 27  1  0  0  0  0
  5 28  1  0  0  0  0
  6 29  1  0  0  0  0
  7 30  1  0  0  0  0
 15 31  1  0  0  0  0
 15 32  1  0  0  0  0
 16 33  1  0  0  0  0
 17 34  1  0  0  0  0
 18 35  1  0  0  0  0
 18 36  1  0  0  0  0
 21 37  1  0  0  0  0
 22 38  1  0  0  0  0
M  END
$$$$
