@<TRIPOS>MOLECULE
Z8507
   38    40     0     0     0
SMALL
USER_CHARGES

@<TRIPOS>ATOM
      1 C1        -44.4270  -25.6238   -0.9746 C.ar      1 <0>        -0.1500
      2 C2        -45.7960  -25.7206   -0.6850 C.ar      1 <0>        -0.1500
      3 C3        -47.7540  -28.7094    5.0590 C.ar      1 <0>        -0.1500
      4 C4        -43.5204  -26.5395   -0.4377 C.ar      1 <0>        -0.1500
      5 C5        -46.2765  -26.7298    0.1511 C.ar      1 <0>        -0.1500
      6 C6        -48.4054  -28.7695    6.2962 C.ar      1 <0>        -0.1500
      7 C7        -50.5258  -28.9733    5.1821 C.ar      1 <0>        -0.1500
      8 C8        -48.4855  -28.7846    3.8667 C.ar      1 <0>         0.0862
      9 C9        -44.0049  -27.5343    0.3957 C.ar      1 <0>        -0.1435
     10 C10       -45.3699  -27.6253    0.6957 C.ar      1 <0>        -0.1435
     11 C11       -49.7954  -28.9039    6.3722 C.ar      1 <0>         0.1000
     12 C12       -49.8775  -28.9116    3.9437 C.ar      1 <0>         0.0825
     13 C13       -47.8091  -28.7954    2.5406 C.2       1 <0>         0.6338
     14 C14       -44.0611  -30.6127    2.3777 C.2       1 <0>         0.6590
     15 C15       -43.2311  -28.6466    1.0323 C.3       1 <0>         0.1435
     16 C16       -45.6429  -28.8229    1.5569 C.3       1 <0>         0.4235
     17 C17       -44.2270  -29.1373    2.0947 C.3       1 <0>         0.0610
     18 N1        -50.4330  -29.0016    7.5996 N.pl3     1 <0>        -0.9000
     19 O1        -48.3816  -29.0290    1.4885 O.2       1 <0>        -0.5700
     20 O2        -44.5532  -31.5240    1.7285 O.2       1 <0>        -0.5700
     21 O3        -50.6250  -28.9847    2.7994 O.3       1 <0>        -0.5325
     22 O4        -43.2716  -30.8057    3.4633 O.3       1 <0>        -0.6500
     23 O5        -46.4835  -28.5534    2.6874 O.3       1 <0>        -0.4300
     24 H1        -44.0722  -24.8349   -1.6319 H         1 <0>         0.1500
     25 H2        -46.4907  -25.0099   -1.1242 H         1 <0>         0.1500
     26 H3        -46.6707  -28.6221    5.0623 H         1 <0>         0.1500
     27 H4        -42.4645  -26.4734   -0.6764 H         1 <0>         0.1500
     28 H5        -47.3394  -26.8083    0.3500 H         1 <0>         0.1500
     29 H6        -47.8103  -28.7215    7.2058 H         1 <0>         0.1500
     30 H7        -51.6075  -29.0843    5.2199 H         1 <0>         0.1500
     31 H8        -42.9918  -29.4192    0.2937 H         1 <0>         0.0000
     32 H9        -42.3079  -28.2865    1.4969 H         1 <0>         0.0000
     33 H10       -46.0397  -29.6441    0.9466 H         1 <0>         0.0000
     34 H11       -44.0730  -28.5862    3.0348 H         1 <0>         0.0000
     35 H12       -49.9061  -28.9160    8.4586 H         1 <0>         0.4000
     36 H13       -51.4401  -29.0830    7.6465 H         1 <0>         0.4000
     37 H14       -51.5620  -29.0783    3.0381 H         1 <0>         0.4500
     38 H15       -43.1694  -31.7589    3.6704 H         1 <0>         0.5000
@<TRIPOS>BOND
     1    1    2 ar
     2    1    4 ar
     3    2    5 ar
     4    3    6 ar
     5    3    8 ar
     6    4    9 ar
     7    5   10 ar
     8    6   11 ar
     9    7   11 ar
    10    7   12 ar
    11    8   12 ar
    12    8   13 1
    13    9   10 ar
    14    9   15 1
    15   10   16 1
    16   11   18 1
    17   12   21 1
    18   13   19 2
    19   13   23 1
    20   14   17 1
    21   14   20 2
    22   14   22 1
    23   15   17 1
    24   16   17 1
    25   16   23 1
    26    1   24 1
    27    2   25 1
    28    3   26 1
    29    4   27 1
    30    5   28 1
    31    6   29 1
    32    7   30 1
    33   15   31 1
    34   15   32 1
    35   16   33 1
    36   17   34 1
    37   18   35 1
    38   18   36 1
    39   21   37 1
    40   22   38 1
