@<TRIPOS>MOLECULE
Z8515
   45    47     0     0     0
SMALL
USER_CHARGES

@<TRIPOS>ATOM
      1 C1        -44.2663  -25.6443   -0.7245 C.ar      1 <0>        -0.1500
      2 C2        -45.6055  -25.8234   -0.3503 C.ar      1 <0>        -0.1500
      3 C3        -49.4928  -28.9125    4.1536 C.ar      1 <0>        -0.1500
      4 C4        -47.4545  -29.1004    5.4229 C.ar      1 <0>        -0.1500
      5 C5        -43.2833  -26.5323   -0.2859 C.ar      1 <0>        -0.1500
      6 C6        -45.9780  -26.8864    0.4752 C.ar      1 <0>        -0.1500
      7 C7        -50.2399  -28.9400    5.3359 C.ar      1 <0>        -0.1500
      8 C8        -48.2047  -29.1219    6.6043 C.ar      1 <0>        -0.1500
      9 C9        -48.0959  -28.9984    4.1856 C.ar      1 <0>         0.0862
     10 C10       -43.6617  -27.5825    0.5359 C.ar      1 <0>        -0.1435
     11 C11       -44.9956  -27.7562    0.9252 C.ar      1 <0>        -0.1435
     12 C12       -49.6036  -29.0546    6.5730 C.ar      1 <0>         0.1170
     13 C13       -47.3695  -29.0392    2.8862 C.2       1 <0>         0.5438
     14 C14       -43.4409  -30.7706    2.3101 C.2       1 <0>         0.6590
     15 C15       -51.6601  -29.1392    8.0256 C.2       1 <0>         0.6900
     16 C16       -42.7893  -28.6781    1.0620 C.3       1 <0>         0.1435
     17 C17       -45.1507  -29.0013    1.7528 C.3       1 <0>         0.4436
     18 C18       -43.6829  -29.2871    2.1574 C.3       1 <0>         0.0610
     19 C19       -53.3090  -29.3274    9.8703 C.3       1 <0>         0.3001
     20 N1        -50.2804  -29.1270    7.8130 N.am      1 <0>        -0.5470
     21 N2        -45.9972  -28.8469    2.9270 N.am      1 <0>        -0.7301
     22 N3        -51.9505  -29.2624    9.3865 N.am      1 <0>        -0.7301
     23 O1        -48.0048  -29.2447    1.8542 O.2       1 <0>        -0.5700
     24 O2        -43.6462  -31.6123    1.4473 O.2       1 <0>        -0.5700
     25 O3        -52.5349  -29.0654    7.1656 O.2       1 <0>        -0.5700
     26 O4        -42.9631  -31.0595    3.5458 O.3       1 <0>        -0.6500
     27 H1        -43.9953  -24.8148   -1.3717 H         1 <0>         0.1500
     28 H2        -46.3632  -25.1354   -0.7152 H         1 <0>         0.1500
     29 H3        -50.0303  -28.8316    3.2115 H         1 <0>         0.1500
     30 H4        -46.3766  -29.1909    5.5116 H         1 <0>         0.1500
     31 H5        -42.2505  -26.4046   -0.5918 H         1 <0>         0.1500
     32 H6        -47.0209  -27.0236    0.7372 H         1 <0>         0.1500
     33 H7        -51.3170  -28.8767    5.2377 H         1 <0>         0.1500
     34 H8        -47.6775  -29.2120    7.5522 H         1 <0>         0.1500
     35 H9        -42.5511  -29.3914    0.2658 H         1 <0>         0.0000
     36 H10       -41.8604  -28.2866    1.4888 H         1 <0>         0.0000
     37 H11       -45.5625  -29.7980    1.1207 H         1 <0>         0.0000
     38 H12       -43.4506  -28.7850    3.1084 H         1 <0>         0.0000
     39 H13       -53.8067  -28.3783    9.6550 H         1 <0>         0.0000
     40 H14       -53.8357  -30.1360    9.3559 H         1 <0>         0.0000
     41 H15       -53.2949  -29.5117   10.9460 H         1 <0>         0.0000
     42 H16       -49.6909  -29.2021    8.6383 H         1 <0>         0.3700
     43 H17       -45.5404  -28.5972    3.7968 H         1 <0>         0.3700
     44 H18       -51.1886  -29.3035   10.0561 H         1 <0>         0.3700
     45 H19       -42.8098  -32.0212    3.6622 H         1 <0>         0.5000
@<TRIPOS>BOND
     1    1    2 ar
     2    1    5 ar
     3    2    6 ar
     4    3    7 ar
     5    3    9 ar
     6    4    8 ar
     7    4    9 ar
     8    5   10 ar
     9    6   11 ar
    10    7   12 ar
    11    8   12 ar
    12    9   13 1
    13   10   11 ar
    14   10   16 1
    15   11   17 1
    16   12   20 1
    17   13   21 am
    18   13   23 2
    19   14   18 1
    20   14   24 2
    21   14   26 1
    22   15   20 am
    23   15   22 am
    24   15   25 2
    25   16   18 1
    26   17   18 1
    27   17   21 1
    28   19   22 1
    29    1   27 1
    30    2   28 1
    31    3   29 1
    32    4   30 1
    33    5   31 1
    34    6   32 1
    35    7   33 1
    36    8   34 1
    37   16   35 1
    38   16   36 1
    39   17   37 1
    40   18   38 1
    41   19   39 1
    42   19   40 1
    43   19   41 1
    44   20   42 1
    45   21   43 1
    46   22   44 1
    47   26   45 1
