@<TRIPOS>MOLECULE
Z8539_2004
   41    44     0     0     0
SMALL
USER_CHARGES

@<TRIPOS>ATOM
      1 C1        -42.3065  -29.9465    2.9104 C.ar      1 <0>        -0.1500
      2 C2        -47.5426  -29.1295    5.2090 C.ar      1 <0>        -0.1500
      3 C3        -43.6473  -29.6150    2.7278 C.ar      1 <0>        -0.1500
      4 C4        -48.0857  -29.0859    6.4961 C.ar      1 <0>        -0.1500
      5 C5        -41.6986  -30.9090    2.0951 C.ar      1 <0>        -0.1500
      6 C6        -51.6351  -29.5528    6.0273 C.2       1 <0>        -0.1500
      7 C7        -49.7504  -29.4635    4.2313 C.ar      1 <0>        -0.1500
      8 C8        -51.5749  -29.4357    7.3964 C.2       1 <0>        -0.3016
      9 C9        -50.3110  -29.4305    5.5232 C.ar      1 <0>         0.0000
     10 C10       -48.3631  -29.3226    4.0931 C.ar      1 <0>         0.0862
     11 C11       -44.3724  -30.2768    1.7432 C.ar      1 <0>        -0.1435
     12 C12       -43.7748  -31.2344    0.9327 C.ar      1 <0>        -0.1435
     13 C13       -49.4700  -29.2428    6.6217 C.ar      1 <0>        -0.1516
     14 C14       -42.4363  -31.5475    1.0966 C.ar      1 <0>         0.0825
     15 C15       -47.7906  -29.3462    2.7297 C.2       1 <0>         0.5438
     16 C16       -47.1171  -32.2951    0.8010 C.2       1 <0>         0.6590
     17 C17       -44.7355  -31.7976   -0.0610 C.3       1 <0>         0.1435
     18 C18       -45.8184  -30.0803    1.4026 C.3       1 <0>         0.4436
     19 C19       -46.1124  -31.2228    0.3768 C.3       1 <0>         0.0610
     20 N1        -50.2649  -29.2467    7.7457 N.pl3     1 <0>         0.0332
     21 N2        -46.6162  -30.0639    2.6127 N.am      1 <0>        -0.7301
     22 O1        -48.3691  -28.7655    1.8177 O.2       1 <0>        -0.5700
     23 O2        -48.0718  -32.1238    1.5454 O.2       1 <0>        -0.5700
     24 O3        -41.8640  -32.4800    0.2830 O.3       1 <0>        -0.5325
     25 O4        -46.9177  -33.4687    0.1496 O.3       1 <0>        -0.6500
     26 H1        -41.7334  -29.4548    3.6908 H         1 <0>         0.1500
     27 H2        -46.4694  -28.9927    5.0977 H         1 <0>         0.1500
     28 H3        -44.1139  -28.8636    3.3570 H         1 <0>         0.1500
     29 H4        -47.4524  -28.9312    7.3635 H         1 <0>         0.1500
     30 H5        -40.6513  -31.1504    2.2503 H         1 <0>         0.1500
     31 H6        -52.5348  -29.7108    5.4489 H         1 <0>         0.1500
     32 H7        -50.3876  -29.6113    3.3642 H         1 <0>         0.1500
     33 H8        -52.3466  -29.4700    8.1521 H         1 <0>         0.1500
     34 H9        -44.4785  -31.4438   -1.0652 H         1 <0>         0.0000
     35 H10       -44.6816  -32.8895   -0.0443 H         1 <0>         0.0000
     36 H11       -45.9266  -29.1131    0.8950 H         1 <0>         0.0000
     37 H12       -46.5839  -30.7702   -0.5079 H         1 <0>         0.0000
     38 H13       -49.9286  -29.1295    8.6916 H         1 <0>         0.2700
     39 H14       -46.2676  -30.5848    3.4133 H         1 <0>         0.3700
     40 H15       -40.9289  -32.5746    0.5326 H         1 <0>         0.4500
     41 H16       -47.5982  -34.1362    0.3810 H         1 <0>         0.5000
@<TRIPOS>BOND
     1    1    3 ar
     2    1    5 ar
     3    2    4 ar
     4    2   10 ar
     5    3   11 ar
     6    4   13 ar
     7    5   14 ar
     8    6    8 2
     9    6    9 1
    10    7    9 ar
    11    7   10 ar
    12    8   20 1
    13    9   13 ar
    14   10   15 1
    15   11   12 ar
    16   11   18 1
    17   12   14 ar
    18   12   17 1
    19   13   20 1
    20   14   24 1
    21   15   21 am
    22   15   22 2
    23   16   19 1
    24   16   23 2
    25   16   25 1
    26   17   19 1
    27   18   19 1
    28   18   21 1
    29    1   26 1
    30    2   27 1
    31    3   28 1
    32    4   29 1
    33    5   30 1
    34    6   31 1
    35    7   32 1
    36    8   33 1
    37   17   34 1
    38   17   35 1
    39   18   36 1
    40   19   37 1
    41   20   38 1
    42   21   39 1
    43   24   40 1
    44   25   41 1
