@<TRIPOS>MOLECULE
Z8539_2001
   40    43     0     0     0
SMALL
USER_CHARGES

@<TRIPOS>ATOM
      1 C1        -45.6960  -25.6438   -0.1942 C.ar      1 <0>        -0.1500
      2 C2        -47.5011  -29.1132    5.0276 C.ar      1 <0>        -0.1500
      3 C3        -46.0793  -26.8855    0.3124 C.ar      1 <0>        -0.1500
      4 C4        -48.2463  -29.1602    6.2175 C.ar      1 <0>        -0.1500
      5 C5        -44.3418  -25.3326   -0.3545 C.ar      1 <0>        -0.1500
      6 C6        -49.5290  -29.3263    3.6993 C.ar      1 <0>        -0.1500
      7 C7        -51.8192  -29.5267    6.3445 C.2       1 <0>         0.0365
      8 C8        -48.1267  -29.2040    3.7784 C.ar      1 <0>         0.0862
      9 C9        -45.0967  -27.8029    0.6691 C.ar      1 <0>        -0.1435
     10 C10       -43.7478  -27.4895    0.5240 C.ar      1 <0>        -0.1435
     11 C11       -50.2833  -29.3815    4.8786 C.ar      1 <0>         0.2272
     12 C12       -49.6304  -29.3014    6.1014 C.ar      1 <0>        -0.1516
     13 C13       -43.3662  -26.2624    0.0073 C.ar      1 <0>         0.0825
     14 C14       -47.4024  -29.1986    2.4815 C.2       1 <0>         0.5438
     15 C15       -43.5101  -30.5425    2.5142 C.2       1 <0>         0.6590
     16 C16       -42.8645  -28.5884    1.0142 C.3       1 <0>         0.1435
     17 C17       -45.2899  -29.1874    1.2205 C.3       1 <0>         0.4436
     18 C18       -43.8461  -29.7555    1.2633 C.3       1 <0>         0.0610
     19 N1        -51.6398  -29.5160    5.0441 N.2       1 <0>        -0.5653
     20 N2        -50.6397  -29.3956    7.0247 N.pl3     1 <0>         0.0332
     21 N3        -46.0126  -29.1726    2.4847 N.am      1 <0>        -0.7301
     22 O1        -48.0699  -29.2274    1.4469 O.2       1 <0>        -0.5700
     23 O2        -42.7379  -30.1957    3.3956 O.2       1 <0>        -0.5700
     24 O3        -42.0396  -25.9847   -0.1395 O.3       1 <0>        -0.5325
     25 O4        -44.1868  -31.7192    2.5332 O.3       1 <0>        -0.6500
     26 H1        -46.4560  -24.9170   -0.4666 H         1 <0>         0.1500
     27 H2        -46.4246  -29.0054    5.1218 H         1 <0>         0.1500
     28 H3        -47.1336  -27.1114    0.4228 H         1 <0>         0.1500
     29 H4        -47.7603  -29.0957    7.1850 H         1 <0>         0.1500
     30 H5        -44.0639  -24.3631   -0.7574 H         1 <0>         0.1500
     31 H6        -50.0467  -29.3921    2.7473 H         1 <0>         0.1500
     32 H7        -52.7688  -29.6265    6.8492 H         1 <0>         0.1500
     33 H8        -42.1314  -28.8675    0.2494 H         1 <0>         0.0000
     34 H9        -42.3368  -28.2673    1.9167 H         1 <0>         0.0000
     35 H10       -45.8669  -29.7766    0.4961 H         1 <0>         0.0000
     36 H11       -43.7215  -30.4491    0.4174 H         1 <0>         0.0000
     37 H12       -50.5327  -29.3800    8.0295 H         1 <0>         0.2700
     38 H13       -45.4828  -29.1084    3.3472 H         1 <0>         0.3700
     39 H14       -41.9533  -25.1009   -0.5357 H         1 <0>         0.4500
     40 H15       -43.9743  -32.2424    3.3354 H         1 <0>         0.5000
@<TRIPOS>BOND
     1    1    3 ar
     2    1    5 ar
     3    2    4 ar
     4    2    8 ar
     5    3    9 ar
     6    4   12 ar
     7    5   13 ar
     8    6    8 ar
     9    6   11 ar
    10    7   19 2
    11    7   20 1
    12    8   14 1
    13    9   10 ar
    14    9   17 1
    15   10   13 ar
    16   10   16 1
    17   11   12 ar
    18   11   19 1
    19   12   20 1
    20   13   24 1
    21   14   21 am
    22   14   22 2
    23   15   18 1
    24   15   23 2
    25   15   25 1
    26   16   18 1
    27   17   18 1
    28   17   21 1
    29    1   26 1
    30    2   27 1
    31    3   28 1
    32    4   29 1
    33    5   30 1
    34    6   31 1
    35    7   32 1
    36   16   33 1
    37   16   34 1
    38   17   35 1
    39   18   36 1
    40   20   37 1
    41   21   38 1
    42   24   39 1
    43   25   40 1
