@<TRIPOS>MOLECULE
Z8539_2006
   40    43     0     0     0
SMALL
USER_CHARGES

@<TRIPOS>ATOM
      1 C1        -45.8404  -26.0637   -0.6781 C.ar      1 <0>        -0.1500
      2 C2        -44.6679  -25.3225   -0.5605 C.ar      1 <0>        -0.1500
      3 C3        -45.9871  -27.2811   -0.0032 C.ar      1 <0>        -0.1500
      4 C4        -47.5518  -29.0527    5.5961 C.ar      1 <0>        -0.1500
      5 C5        -43.6093  -25.7757    0.2299 C.ar      1 <0>        -0.1500
      6 C6        -48.1233  -29.0370    6.8746 C.ar      1 <0>        -0.1500
      7 C7        -49.6280  -29.8876    4.6144 C.ar      1 <0>        -0.1500
      8 C8        -44.9323  -27.7608    0.8039 C.ar      1 <0>         0.0000
      9 C9        -48.2923  -29.4733    4.4848 C.ar      1 <0>         0.0862
     10 C10       -44.7391  -28.9367    1.6080 C.2       1 <0>        -0.1810
     11 C11       -50.2072  -29.8828    5.8929 C.ar      1 <0>         0.2272
     12 C12       -43.7726  -26.9962    0.8952 C.ar      1 <0>        -0.1516
     13 C13       -49.4491  -29.4602    6.9821 C.ar      1 <0>        -0.1516
     14 C14       -43.4704  -28.8457    2.1777 C.2       1 <0>        -0.2366
     15 C15       -51.4906  -30.0456    7.5800 C.2       1 <0>         0.2495
     16 C16       -47.7143  -29.4636    3.1244 C.2       1 <0>         0.5438
     17 C17       -42.7489  -29.7209    3.0719 C.2       1 <0>         0.8050
     18 C18       -45.7248  -30.0483    1.7527 C.3       1 <0>         0.4811
     19 N1        -51.4751  -30.2451    6.2836 N.2       1 <0>        -0.5653
     20 N2        -42.9091  -27.6759    1.7149 N.pl3     1 <0>         0.0332
     21 N3        -50.3008  -29.5704    8.0525 N.pl3     1 <0>         0.0332
     22 N4        -46.4138  -29.9233    3.0246 N.am      1 <0>        -0.7301
     23 O1        -48.4132  -29.0903    2.1871 O.2       1 <0>        -0.5700
     24 O2        -41.5509  -29.6638    3.3175 O.2       1 <0>        -0.5700
     25 O3        -52.5279  -30.2705    8.3678 O.3       1 <0>        -0.5130
     26 O4        -43.5735  -30.6281    3.6529 O.3       1 <0>        -0.6500
     27 H1        -46.6501  -25.6954   -1.3022 H         1 <0>         0.1500
     28 H2        -44.5727  -24.3794   -1.0925 H         1 <0>         0.1500
     29 H3        -46.9093  -27.8453   -0.1086 H         1 <0>         0.1500
     30 H4        -46.5254  -28.7107    5.4859 H         1 <0>         0.1500
     31 H5        -42.6936  -25.2007    0.3192 H         1 <0>         0.1500
     32 H6        -47.5608  -28.7030    7.7394 H         1 <0>         0.1500
     33 H7        -50.2051  -30.2179    3.7563 H         1 <0>         0.1500
     34 H8        -46.4529  -30.0424    0.9352 H         1 <0>         0.0000
     35 H9        -45.2272  -31.0231    1.7340 H         1 <0>         0.0000
     36 H10       -41.9837  -27.3533    1.9614 H         1 <0>         0.2700
     37 H11       -50.0866  -29.3432    9.0143 H         1 <0>         0.2700
     38 H12       -45.9174  -30.2321    3.8555 H         1 <0>         0.3700
     39 H13       -53.2311  -30.6050    7.7840 H         1 <0>         0.4500
     40 H14       -43.0957  -31.2152    4.2760 H         1 <0>         0.5000
@<TRIPOS>BOND
     1    1    2 ar
     2    1    3 ar
     3    2    5 ar
     4    3    8 ar
     5    4    6 ar
     6    4    9 ar
     7    5   12 ar
     8    6   13 ar
     9    7    9 ar
    10    7   11 ar
    11    8   10 1
    12    8   12 ar
    13    9   16 1
    14   10   14 2
    15   10   18 1
    16   11   13 ar
    17   11   19 1
    18   12   20 1
    19   13   21 1
    20   14   17 1
    21   14   20 1
    22   15   19 2
    23   15   21 1
    24   15   25 1
    25   16   22 am
    26   16   23 2
    27   17   24 2
    28   17   26 1
    29   18   22 1
    30    1   27 1
    31    2   28 1
    32    3   29 1
    33    4   30 1
    34    5   31 1
    35    6   32 1
    36    7   33 1
    37   18   34 1
    38   18   35 1
    39   20   36 1
    40   21   37 1
    41   22   38 1
    42   25   39 1
    43   26   40 1
