@<TRIPOS>MOLECULE
Z8539_0072
   51    54     0     0     0
SMALL
USER_CHARGES

@<TRIPOS>ATOM
      1 C1        -46.0346  -26.4651   -0.5166 C.ar      1 <0>        -0.1500
      2 C2        -47.6820  -29.1970    5.4651 C.ar      1 <0>        -0.1500
      3 C3        -46.4508  -27.6568    0.0801 C.ar      1 <0>        -0.1500
      4 C4        -48.3089  -29.1400    6.7199 C.ar      1 <0>        -0.1500
      5 C5        -44.7165  -26.0140   -0.3652 C.ar      1 <0>        -0.1500
      6 C6        -50.4596  -29.1040    5.6621 C.ar      1 <0>        -0.1500
      7 C7        -48.4376  -29.2176    4.2860 C.ar      1 <0>         0.0862
      8 C8        -45.5346  -28.3823    0.8284 C.ar      1 <0>        -0.1435
      9 C9        -44.2153  -27.9404    0.9717 C.ar      1 <0>        -0.1435
     10 C10       -49.7031  -29.1030    6.8312 C.ar      1 <0>         0.1170
     11 C11       -43.8042  -26.7587    0.3836 C.ar      1 <0>         0.0825
     12 C12       -49.8360  -29.1601    4.4104 C.ar      1 <0>         0.0825
     13 C13       -47.8085  -29.3297    2.9320 C.2       1 <0>         0.5438
     14 C14       -44.0918  -31.0935    2.9035 C.2       1 <0>         0.6590
     15 C15       -51.6173  -29.0715    8.4658 C.2       1 <0>         0.6900
     16 C16       -43.4236  -28.8845    1.8214 C.3       1 <0>         0.1435
     17 C17       -53.6385  -30.2907   11.1071 C.3       1 <0>        -0.2000
     18 C18       -53.2626  -29.1056   11.9453 C.3       1 <0>        -0.2000
     19 C19       -45.7542  -29.6686    1.5781 C.3       1 <0>         0.4436
     20 C20       -44.2933  -30.1560    1.7363 C.3       1 <0>         0.0610
     21 C21       -53.0902  -29.0514   10.4530 C.3       1 <0>         0.0490
     22 N1        -50.2603  -29.0740    8.1317 N.am      1 <0>        -0.5470
     23 N2        -46.4284  -29.4423    2.8538 N.am      1 <0>        -0.7301
     24 N3        -51.7904  -29.0499    9.8513 N.am      1 <0>        -0.5790
     25 O1        -48.5268  -29.3356    1.9345 O.2       1 <0>        -0.5700
     26 O2        -43.5877  -30.7974    3.9765 O.2       1 <0>        -0.5700
     27 O3        -52.5656  -29.0878    7.6837 O.2       1 <0>        -0.5700
     28 O4        -42.5145  -26.3486    0.5398 O.3       1 <0>        -0.5325
     29 O5        -50.7012  -29.1620    3.3470 O.3       1 <0>        -0.5325
     30 O6        -44.5731  -32.3279    2.6111 O.3       1 <0>        -0.6500
     31 H1        -46.7392  -25.8820   -1.1034 H         1 <0>         0.1500
     32 H2        -46.5975  -29.2315    5.4628 H         1 <0>         0.1500
     33 H3        -47.4717  -27.9984   -0.0484 H         1 <0>         0.1500
     34 H4        -47.6850  -29.1349    7.6116 H         1 <0>         0.1500
     35 H5        -44.4166  -25.0831   -0.8382 H         1 <0>         0.1500
     36 H6        -51.5426  -29.0658    5.6754 H         1 <0>         0.1500
     37 H7        -42.4251  -29.0679    1.4133 H         1 <0>         0.0000
     38 H8        -43.3387  -28.4944    2.8409 H         1 <0>         0.0000
     39 H9        -53.0054  -31.1677   11.1631 H         1 <0>         0.1000
     40 H10       -54.6923  -30.5046   10.9774 H         1 <0>         0.1000
     41 H11       -54.0632  -28.5162   12.3752 H         1 <0>         0.1000
     42 H12       -52.3782  -29.1857   12.5645 H         1 <0>         0.1000
     43 H13       -46.3346  -30.3813    0.9808 H         1 <0>         0.0000
     44 H14       -43.9913  -30.6904    0.8220 H         1 <0>         0.0000
     45 H15       -53.8014  -28.4272    9.9194 H         1 <0>         0.1000
     46 H16       -49.5973  -29.0685    8.9026 H         1 <0>         0.3700
     47 H17       -45.8494  -29.3922    3.6834 H         1 <0>         0.3700
     48 H18       -50.9749  -29.0518   10.4566 H         1 <0>         0.3700
     49 H19       -42.3958  -25.5162    0.0516 H         1 <0>         0.4500
     50 H20       -50.1964  -29.1812    2.5191 H         1 <0>         0.4500
     51 H21       -44.4591  -32.9488    3.3617 H         1 <0>         0.5000
@<TRIPOS>BOND
     1    1    3 ar
     2    1    5 ar
     3    2    4 ar
     4    2    7 ar
     5    3    8 ar
     6    4   10 ar
     7    5   11 ar
     8    6   10 ar
     9    6   12 ar
    10    7   12 ar
    11    7   13 1
    12    8    9 ar
    13    8   19 1
    14    9   11 ar
    15    9   16 1
    16   10   22 1
    17   11   28 1
    18   12   29 1
    19   13   23 am
    20   13   25 2
    21   14   20 1
    22   14   26 2
    23   14   30 1
    24   15   22 am
    25   15   24 am
    26   15   27 2
    27   16   20 1
    28   17   18 1
    29   17   21 1
    30   18   21 1
    31   19   20 1
    32   19   23 1
    33   21   24 1
    34    1   31 1
    35    2   32 1
    36    3   33 1
    37    4   34 1
    38    5   35 1
    39    6   36 1
    40   16   37 1
    41   16   38 1
    42   17   39 1
    43   17   40 1
    44   18   41 1
    45   18   42 1
    46   19   43 1
    47   20   44 1
    48   21   45 1
    49   22   46 1
    50   23   47 1
    51   24   48 1
    52   28   49 1
    53   29   50 1
    54   30   51 1
