@<TRIPOS>MOLECULE
Z8539
   50    53     0     0     0
SMALL
USER_CHARGES

@<TRIPOS>ATOM
      1 C1        -42.2350  -31.0136    2.5447 C.ar      1 <0>        -0.0957
      2 C2        -49.8063  -29.1866    4.2091 C.ar      1 <0>        -0.0584
      3 C3        -47.6364  -29.1667    5.2712 C.ar      1 <0>        -0.0584
      4 C4        -43.4501  -30.3351    2.6665 C.ar      1 <0>        -0.1253
      5 C5        -50.4195  -29.1860    5.4619 C.ar      1 <0>        -0.1874
      6 C6        -48.2496  -29.1660    6.5241 C.ar      1 <0>        -0.1874
      7 C7        -41.9544  -31.7803    1.4038 C.ar      1 <0>        -0.2031
      8 C8        -48.4147  -29.1770    4.1137 C.ar      1 <0>        -0.1734
      9 C9        -44.3783  -30.4502    1.6427 C.ar      1 <0>        -0.0902
     10 C10       -44.0919  -31.2125    0.5022 C.ar      1 <0>        -0.1195
     11 C11       -49.6412  -29.1757    6.6194 C.ar      1 <0>         0.1080
     12 C12       -42.8844  -31.8785    0.3676 C.ar      1 <0>         0.1353
     13 C13       -47.7616  -29.1778    2.7794 C.2       1 <0>         0.6917
     14 C14       -47.1605  -31.8016    0.9008 C.2       1 <0>         0.6494
     15 C15       -51.6324  -29.1847    8.1736 C.2       1 <0>         0.7707
     16 C16       -45.2143  -31.1483   -0.4904 C.3       1 <0>        -0.0114
     17 C17       -54.3041  -28.4501    9.5265 C.3       1 <0>        -0.1451
     18 C18       -54.2923  -29.9496    9.5332 C.3       1 <0>        -0.1451
     19 C19       -45.7203  -29.7881    1.5083 C.3       1 <0>         0.1742
     20 C20       -46.3724  -30.6256    0.3825 C.3       1 <0>        -0.1391
     21 C21       -53.1547  -29.1881   10.1564 C.3       1 <0>         0.0451
     22 N1        -50.2555  -29.1751    7.8720 N.am      1 <0>        -0.4792
     23 N2        -46.4892  -29.7357    2.7202 N.am      1 <0>        -0.5664
     24 N3        -51.8403  -29.1803    9.5566 N.am      1 <0>        -0.5229
     25 O1        -48.3505  -28.6814    1.8228 O.2       1 <0>        -0.6121
     26 O2        -47.3276  -32.0689    2.0815 O.2       1 <0>        -0.5475
     27 O3        -52.5502  -29.1959    7.3567 O.2       1 <0>        -0.6057
     28 O4        -42.6011  -32.6088   -0.7412 O.3       1 <0>        -0.4963
     29 O5        -47.6619  -32.5315   -0.1253 O.3       1 <0>        -0.6033
     30 H1        -41.4953  -30.9403    3.3373 H         1 <0>         0.1369
     31 H2        -50.4223  -29.1952    3.3137 H         1 <0>         0.1482
     32 H3        -46.5512  -29.1591    5.2084 H         1 <0>         0.1482
     33 H4        -43.6500  -29.7299    3.5441 H         1 <0>         0.1556
     34 H5        -51.5049  -29.1931    5.5252 H         1 <0>         0.1551
     35 H6        -47.6329  -29.1581    7.4194 H         1 <0>         0.1551
     36 H7        -40.9990  -32.2937    1.3298 H         1 <0>         0.1339
     37 H8        -44.9649  -30.4299   -1.2785 H         1 <0>         0.0731
     38 H9        -45.4252  -32.1277   -0.9311 H         1 <0>         0.0731
     39 H10       -54.1401  -27.9499    8.5798 H         1 <0>         0.0775
     40 H11       -55.0020  -27.9476   10.1849 H         1 <0>         0.0775
     41 H12       -54.9824  -30.4570   10.1961 H         1 <0>         0.0775
     42 H13       -54.1205  -30.4556    8.5910 H         1 <0>         0.0775
     43 H14       -45.5692  -28.7558    1.1672 H         1 <0>         0.1042
     44 H15       -47.0703  -30.0226   -0.2085 H         1 <0>         0.0959
     45 H16       -53.1089  -29.1830   11.2401 H         1 <0>         0.1114
     46 H17       -49.6360  -29.1673    8.6891 H         1 <0>         0.3165
     47 H18       -46.0450  -30.0701    3.5739 H         1 <0>         0.3206
     48 H19       -51.0297  -29.1712   10.1677 H         1 <0>         0.2930
     49 H20       -41.7162  -33.0041   -0.6709 H         1 <0>         0.4217
     50 H21       -48.1773  -33.3037    0.1918 H         1 <0>         0.4454
@<TRIPOS>BOND
     1    1    4 ar
     2    1    7 ar
     3    2    5 ar
     4    2    8 ar
     5    3    6 ar
     6    3    8 ar
     7    4    9 ar
     8    5   11 ar
     9    6   11 ar
    10    7   12 ar
    11    8   13 1
    12    9   10 ar
    13    9   19 1
    14   10   12 ar
    15   10   16 1
    16   11   22 1
    17   12   28 1
    18   13   23 am
    19   13   25 2
    20   14   20 1
    21   14   26 2
    22   14   29 1
    23   15   22 am
    24   15   24 am
    25   15   27 2
    26   16   20 1
    27   17   18 1
    28   17   21 1
    29   18   21 1
    30   19   20 1
    31   19   23 1
    32   21   24 1
    33    1   30 1
    34    2   31 1
    35    3   32 1
    36    4   33 1
    37    5   34 1
    38    6   35 1
    39    7   36 1
    40   16   37 1
    41   16   38 1
    42   17   39 1
    43   17   40 1
    44   18   41 1
    45   18   42 1
    46   19   43 1
    47   20   44 1
    48   21   45 1
    49   22   46 1
    50   23   47 1
    51   24   48 1
    52   28   49 1
    53   29   50 1
