@<TRIPOS>MOLECULE
Z8539_2005
   39    42     0     0     0
SMALL
USER_CHARGES

@<TRIPOS>ATOM
      1 C1        -45.6209  -25.7815   -0.7217 C.ar      1 <0>        -0.1500
      2 C2        -44.3671  -25.1781   -0.7272 C.ar      1 <0>        -0.1500
      3 C3        -45.8018  -27.0449   -0.1486 C.ar      1 <0>        -0.1500
      4 C4        -47.5683  -29.0596    5.0747 C.ar      1 <0>        -0.1500
      5 C5        -43.2610  -25.8185   -0.1641 C.ar      1 <0>        -0.1500
      6 C6        -48.2356  -29.0638    6.3073 C.ar      1 <0>        -0.1500
      7 C7        -49.6762  -29.2974    3.8705 C.ar      1 <0>        -0.1500
      8 C8        -51.7929  -29.3975    6.6717 C.2       1 <0>         0.0365
      9 C9        -44.7035  -27.7095    0.4391 C.ar      1 <0>         0.0000
     10 C10       -48.2733  -29.1882    3.8715 C.ar      1 <0>         0.0862
     11 C11       -44.5306  -28.9778    1.0966 C.2       1 <0>        -0.1810
     12 C12       -50.3541  -29.3105    5.0999 C.ar      1 <0>         0.2272
     13 C13       -43.4627  -27.0797    0.4081 C.ar      1 <0>        -0.1516
     14 C14       -49.6243  -29.1985    6.2781 C.ar      1 <0>        -0.1516
     15 C15       -43.1864  -29.0775    1.4510 C.2       1 <0>        -0.2366
     16 C16       -47.5942  -29.2164    2.5526 C.2       1 <0>         0.5438
     17 C17       -42.4360  -30.1157    2.1171 C.2       1 <0>         0.8050
     18 C18       -45.6042  -29.9984    1.2826 C.3       1 <0>         0.4811
     19 N1        -51.6987  -29.4289    5.3619 N.2       1 <0>        -0.5653
     20 N2        -50.5710  -29.2556    7.2688 N.pl3     1 <0>         0.0332
     21 N3        -42.5694  -27.9286    1.0075 N.pl3     1 <0>         0.0332
     22 N4        -46.3178  -29.7589    2.5257 N.am      1 <0>        -0.7301
     23 O1        -48.2061  -28.8111    1.5675 O.2       1 <0>        -0.5700
     24 O2        -41.2216  -30.2640    2.0667 O.2       1 <0>        -0.5700
     25 O3        -43.2449  -30.9156    2.8568 O.3       1 <0>        -0.6500
     26 H1        -46.4690  -25.2704   -1.1689 H         1 <0>         0.1500
     27 H2        -44.2448  -24.1979   -1.1802 H         1 <0>         0.1500
     28 H3        -46.7864  -27.5009   -0.1656 H         1 <0>         0.1500
     29 H4        -46.4876  -28.9422    5.0836 H         1 <0>         0.1500
     30 H5        -42.2811  -25.3534   -0.1760 H         1 <0>         0.1500
     31 H6        -47.6917  -28.9688    7.2406 H         1 <0>         0.1500
     32 H7        -50.2393  -29.3929    2.9470 H         1 <0>         0.1500
     33 H8        -52.7072  -29.4736    7.2422 H         1 <0>         0.1500
     34 H9        -46.3058  -29.9777    0.4420 H         1 <0>         0.0000
     35 H10       -45.1969  -31.0125    1.3265 H         1 <0>         0.0000
     36 H11       -50.3968  -29.2105    8.2636 H         1 <0>         0.2700
     37 H12       -41.5844  -27.7330    1.1202 H         1 <0>         0.2700
     38 H13       -45.8809  -30.0885    3.3806 H         1 <0>         0.3700
     39 H14       -42.7380  -31.6123    3.3257 H         1 <0>         0.5000
@<TRIPOS>BOND
     1    1    2 ar
     2    1    3 ar
     3    2    5 ar
     4    3    9 ar
     5    4    6 ar
     6    4   10 ar
     7    5   13 ar
     8    6   14 ar
     9    7   10 ar
    10    7   12 ar
    11    8   19 2
    12    8   20 1
    13    9   11 1
    14    9   13 ar
    15   10   16 1
    16   11   15 2
    17   11   18 1
    18   12   14 ar
    19   12   19 1
    20   13   21 1
    21   14   20 1
    22   15   17 1
    23   15   21 1
    24   16   22 am
    25   16   23 2
    26   17   24 2
    27   17   25 1
    28   18   22 1
    29    1   26 1
    30    2   27 1
    31    3   28 1
    32    4   29 1
    33    5   30 1
    34    6   31 1
    35    7   32 1
    36    8   33 1
    37   18   34 1
    38   18   35 1
    39   20   36 1
    40   21   37 1
    41   22   38 1
    42   25   39 1
