@<TRIPOS>MOLECULE
Z9604
   47    50     0     0     0
SMALL
USER_CHARGES

@<TRIPOS>ATOM
      1 C1        -43.1803  -25.9587    0.7727 C.ar      1 <0>        -0.1226
      2 C2        -44.5103  -25.8019    1.1907 C.ar      1 <0>        -0.1334
      3 C3        -49.3929  -28.4584    4.5151 C.ar      1 <0>        -0.0604
      4 C4        -47.7062  -29.8335    5.5646 C.ar      1 <0>        -0.0604
      5 C5        -42.5658  -27.2113    0.8136 C.ar      1 <0>        -0.1177
      6 C6        -45.2445  -26.8950    1.6571 C.ar      1 <0>        -0.0902
      7 C7        -50.1005  -28.4097    5.7161 C.ar      1 <0>        -0.1854
      8 C8        -48.4138  -29.7847    6.7657 C.ar      1 <0>        -0.1854
      9 C9        -48.1958  -29.1704    4.4393 C.ar      1 <0>        -0.1703
     10 C10       -43.2974  -28.2876    1.2892 C.ar      1 <0>        -0.0902
     11 C11       -44.6244  -28.1339    1.7130 C.ar      1 <0>        -0.1230
     12 C12       -49.6110  -29.0727    6.8415 C.ar      1 <0>         0.0961
     13 C13       -47.4422  -29.2226    3.1601 C.2       1 <0>         0.6931
     14 C14       -51.7035  -28.9032    8.2259 C.2       1 <0>         0.6963
     15 C15       -43.4068  -30.2555    3.7463 C.2       1 <0>         0.6413
     16 C16       -42.8572  -29.7178    1.3886 C.3       1 <0>        -0.0242
     17 C17       -53.0587  -29.8886   10.1691 C.3       1 <0>        -0.1104
     18 C18       -51.6105  -30.0136   10.5360 C.3       1 <0>        -0.1104
     19 C19       -45.2019  -29.4596    2.1210 C.3       1 <0>         0.1768
     20 C20       -52.0743  -28.8864    9.6877 C.3       1 <0>        -0.2246
     21 C21       -43.9247  -30.3073    2.3315 C.3       1 <0>        -0.1347
     22 N1        -50.3195  -29.0233    8.0423 N.am      1 <0>        -0.4722
     23 N2        -46.0686  -29.4116    3.2653 N.am      1 <0>        -0.5692
     24 O1        -48.0474  -29.0797    2.1009 O.2       1 <0>        -0.6092
     25 O2        -52.5666  -28.8208    7.3580 O.2       1 <0>        -0.5746
     26 O3        -43.9403  -29.6552    4.6674 O.2       1 <0>        -0.5396
     27 O4        -42.2592  -30.9674    3.8623 O.3       1 <0>        -0.6123
     28 H1        -42.6271  -25.0979    0.4069 H         1 <0>         0.1327
     29 H2        -44.9755  -24.8209    1.1439 H         1 <0>         0.1346
     30 H3        -49.7836  -27.9386    3.6443 H         1 <0>         0.1473
     31 H4        -46.7744  -30.3912    5.5167 H         1 <0>         0.1473
     32 H5        -41.5414  -27.3335    0.4787 H         1 <0>         0.1354
     33 H6        -46.2781  -26.7667    1.9601 H         1 <0>         0.1541
     34 H7        -51.0324  -27.8516    5.7646 H         1 <0>         0.1544
     35 H8        -48.0228  -30.3054    7.6363 H         1 <0>         0.1544
     36 H9        -42.9082  -30.1853    0.3995 H         1 <0>         0.0676
     37 H10       -41.8421  -29.8017    1.7890 H         1 <0>         0.0676
     38 H11       -53.4690  -30.6185    9.4819 H         1 <0>         0.0825
     39 H12       -53.7477  -29.5609   10.9380 H         1 <0>         0.0825
     40 H13       -51.3247  -29.7706   11.5521 H         1 <0>         0.0825
     41 H14       -51.0493  -30.8293   10.0964 H         1 <0>         0.0825
     42 H15       -45.7836  -29.8615    1.2815 H         1 <0>         0.1023
     43 H16       -52.0911  -27.8987   10.0947 H         1 <0>         0.1068
     44 H17       -44.1075  -31.3641    2.1090 H         1 <0>         0.1003
     45 H18       -49.7628  -29.0827    8.9028 H         1 <0>         0.3197
     46 H19       -45.6350  -29.4586    4.1860 H         1 <0>         0.3167
     47 H20       -41.9047  -30.9444    4.7767 H         1 <0>         0.4456
@<TRIPOS>BOND
     1    1    2 ar
     2    1    5 ar
     3    2    6 ar
     4    3    7 ar
     5    3    9 ar
     6    4    8 ar
     7    4    9 ar
     8    5   10 ar
     9    6   11 ar
    10    7   12 ar
    11    8   12 ar
    12    9   13 1
    13   10   11 ar
    14   10   16 1
    15   11   19 1
    16   12   22 1
    17   13   23 am
    18   13   24 2
    19   14   20 1
    20   14   22 am
    21   14   25 2
    22   15   21 1
    23   15   26 2
    24   15   27 1
    25   16   21 1
    26   17   18 1
    27   17   20 1
    28   18   20 1
    29   19   21 1
    30   19   23 1
    31    1   28 1
    32    2   29 1
    33    3   30 1
    34    4   31 1
    35    5   32 1
    36    6   33 1
    37    7   34 1
    38    8   35 1
    39   16   36 1
    40   16   37 1
    41   17   38 1
    42   17   39 1
    43   18   40 1
    44   18   41 1
    45   19   42 1
    46   20   43 1
    47   21   44 1
    48   22   45 1
    49   23   46 1
    50   27   47 1
