@<TRIPOS>MOLECULE
ZINC922
   18    18     0     0     0
SMALL
USER_CHARGES

@<TRIPOS>ATOM
      1 C1        -47.6705  -29.2241    5.3908 C.ar      1 <0>        -0.1500
      2 C2        -48.3692  -29.2720    6.6016 C.ar      1 <0>        -0.1500
      3 C3        -50.4488  -29.0879    5.4120 C.ar      1 <0>        -0.1500
      4 C4        -48.3542  -29.1086    4.1727 C.ar      1 <0>         0.0862
      5 C5        -49.7652  -29.2133    6.6257 C.ar      1 <0>         0.1000
      6 C6        -49.7526  -29.0378    4.1967 C.ar      1 <0>         0.0825
      7 C7        -47.5217  -29.0651    2.9408 C.2       1 <0>         0.6338
      8 N1        -50.4563  -29.2408    7.8277 N.pl3     1 <0>        -0.9000
      9 O1        -46.3013  -29.0823    2.9391 O.2       1 <0>        -0.5700
     10 O2        -50.4714  -28.9132    3.0394 O.3       1 <0>        -0.5325
     11 O3        -48.2679  -29.0101    1.8185 O.3       1 <0>        -0.6500
     12 H1        -46.5848  -29.2782    5.4241 H         1 <0>         0.1500
     13 H2        -47.8079  -29.3582    7.5295 H         1 <0>         0.1500
     14 H3        -51.5357  -29.0282    5.4140 H         1 <0>         0.1500
     15 H4        -49.9596  -29.3597    8.7005 H         1 <0>         0.4000
     16 H5        -51.4678  -29.2473    7.8340 H         1 <0>         0.4000
     17 H6        -51.4187  -28.8795    3.2536 H         1 <0>         0.4500
     18 H7        -47.7181  -28.9811    1.0073 H         1 <0>         0.5000
@<TRIPOS>BOND
     1    1    2 ar
     2    1    4 ar
     3    2    5 ar
     4    3    5 ar
     5    3    6 ar
     6    4    6 ar
     7    4    7 1
     8    5    8 1
     9    6   10 1
    10    7    9 2
    11    7   11 1
    12    1   12 1
    13    2   13 1
    14    3   14 1
    15    8   15 1
    16    8   16 1
    17   10   17 1
    18   11   18 1
