@<TRIPOS>MOLECULE
ZINC337835
   22    23     0     0     0
SMALL
USER_CHARGES

@<TRIPOS>ATOM
      1 C1        -44.8991  -26.1032   -0.0745 C.ar      1 <0>        -0.1500
      2 C2        -46.2247  -26.5617   -0.1233 C.ar      1 <0>        -0.1500
      3 C3        -43.8874  -26.9081    0.4530 C.ar      1 <0>        -0.1500
      4 C4        -46.5564  -27.8315    0.3531 C.ar      1 <0>        -0.1500
      5 C5        -44.2245  -28.1697    0.9146 C.ar      1 <0>        -0.1435
      6 C6        -45.5445  -28.6267    0.8643 C.ar      1 <0>        -0.1435
      7 C7        -43.9842  -31.4824    2.5727 C.2       1 <0>         0.6590
      8 C8        -43.3279  -29.1814    1.5562 C.3       1 <0>         0.1435
      9 C9        -45.6654  -29.9935    1.4567 C.3       1 <0>         0.1435
     10 C10       -44.1951  -30.4582    1.4798 C.3       1 <0>         0.0610
     11 O1        -44.3910  -32.6359    2.5056 O.2       1 <0>        -0.5700
     12 O2        -43.3471  -30.9847    3.6561 O.3       1 <0>        -0.6500
     13 H1        -44.6606  -25.1098   -0.4445 H         1 <0>         0.1500
     14 H2        -47.0006  -25.9192   -0.5302 H         1 <0>         0.1500
     15 H3        -42.8656  -26.5472    0.5016 H         1 <0>         0.1500
     16 H4        -47.5830  -28.1804    0.3238 H         1 <0>         0.1500
     17 H5        -42.3955  -29.3102    0.9975 H         1 <0>         0.0000
     18 H6        -43.0975  -28.8669    2.5783 H         1 <0>         0.0000
     19 H7        -46.0975  -29.9380    2.4618 H         1 <0>         0.0000
     20 H8        -46.2753  -30.6549    0.8332 H         1 <0>         0.0000
     21 H9        -43.9579  -30.9582    0.5289 H         1 <0>         0.0000
     22 H10       -43.2518  -31.6544    4.3661 H         1 <0>         0.5000
@<TRIPOS>BOND
     1    1    2 ar
     2    1    3 ar
     3    2    4 ar
     4    3    5 ar
     5    4    6 ar
     6    5    6 ar
     7    5    8 1
     8    6    9 1
     9    7   10 1
    10    7   11 2
    11    7   12 1
    12    8   10 1
    13    9   10 1
    14    1   13 1
    15    2   14 1
    16    3   15 1
    17    4   16 1
    18    8   17 1
    19    8   18 1
    20    9   19 1
    21    9   20 1
    22   10   21 1
    23   12   22 1
