Z8515
  -OEChem-03122418103D

 45 47  0     1  0  0  0  0  0999 V2000
  -44.2663  -25.6443   -0.7245 C   0  0  0  0  0  0  0  0  0  0  0  0
  -45.6055  -25.8234   -0.3503 C   0  0  0  0  0  0  0  0  0  0  0  0
  -49.4928  -28.9125    4.1536 C   0  0  0  0  0  0  0  0  0  0  0  0
  -47.4545  -29.1004    5.4229 C   0  0  0  0  0  0  0  0  0  0  0  0
  -43.2833  -26.5323   -0.2859 C   0  0  0  0  0  0  0  0  0  0  0  0
  -45.9780  -26.8864    0.4752 C   0  0  0  0  0  0  0  0  0  0  0  0
  -50.2399  -28.9400    5.3359 C   0  0  0  0  0  0  0  0  0  0  0  0
  -48.2047  -29.1219    6.6043 C   0  0  0  0  0  0  0  0  0  0  0  0
  -48.0959  -28.9984    4.1856 C   0  0  0  0  0  0  0  0  0  0  0  0
  -43.6617  -27.5825    0.5359 C   0  0  0  0  0  0  0  0  0  0  0  0
  -44.9956  -27.7562    0.9252 C   0  0  0  0  0  0  0  0  0  0  0  0
  -49.6036  -29.0546    6.5730 C   0  0  0  0  0  0  0  0  0  0  0  0
  -47.3695  -29.0392    2.8862 C   0  0  0  0  0  0  0  0  0  0  0  0
  -43.4409  -30.7706    2.3101 C   0  0  0  0  0  0  0  0  0  0  0  0
  -51.6601  -29.1392    8.0256 C   0  0  0  0  0  0  0  0  0  0  0  0
  -42.7893  -28.6781    1.0620 C   0  0  0  0  0  0  0  0  0  0  0  0
  -45.1507  -29.0013    1.7528 C   0  0  1  0  0  0  0  0  0  0  0  0
  -43.6829  -29.2871    2.1574 C   0  0  1  0  0  0  0  0  0  0  0  0
  -53.3090  -29.3274    9.8703 C   0  0  0  0  0  0  0  0  0  0  0  0
  -50.2804  -29.1270    7.8130 N   0  0  0  0  0  0  0  0  0  0  0  0
  -45.9972  -28.8469    2.9270 N   0  0  0  0  0  0  0  0  0  0  0  0
  -51.9505  -29.2624    9.3865 N   0  0  0  0  0  0  0  0  0  0  0  0
  -48.0048  -29.2447    1.8542 O   0  0  0  0  0  0  0  0  0  0  0  0
  -43.6462  -31.6123    1.4473 O   0  0  0  0  0  0  0  0  0  0  0  0
  -52.5349  -29.0654    7.1656 O   0  0  0  0  0  0  0  0  0  0  0  0
  -42.9631  -31.0595    3.5458 O   0  0  0  0  0  0  0  0  0  0  0  0
  -43.9953  -24.8148   -1.3717 H   0  0  0  0  0  0  0  0  0  0  0  0
  -46.3632  -25.1354   -0.7152 H   0  0  0  0  0  0  0  0  0  0  0  0
  -50.0303  -28.8316    3.2115 H   0  0  0  0  0  0  0  0  0  0  0  0
  -46.3766  -29.1909    5.5116 H   0  0  0  0  0  0  0  0  0  0  0  0
  -42.2505  -26.4046   -0.5918 H   0  0  0  0  0  0  0  0  0  0  0  0
  -47.0209  -27.0236    0.7372 H   0  0  0  0  0  0  0  0  0  0  0  0
  -51.3170  -28.8767    5.2377 H   0  0  0  0  0  0  0  0  0  0  0  0
  -47.6775  -29.2120    7.5522 H   0  0  0  0  0  0  0  0  0  0  0  0
  -42.5511  -29.3914    0.2658 H   0  0  0  0  0  0  0  0  0  0  0  0
  -41.8604  -28.2866    1.4888 H   0  0  0  0  0  0  0  0  0  0  0  0
  -45.5625  -29.7980    1.1207 H   0  0  0  0  0  0  0  0  0  0  0  0
  -43.4506  -28.7850    3.1084 H   0  0  0  0  0  0  0  0  0  0  0  0
  -53.8067  -28.3783    9.6550 H   0  0  0  0  0  0  0  0  0  0  0  0
  -53.8357  -30.1360    9.3559 H   0  0  0  0  0  0  0  0  0  0  0  0
  -53.2949  -29.5117   10.9460 H   0  0  0  0  0  0  0  0  0  0  0  0
  -49.6909  -29.2021    8.6383 H   0  0  0  0  0  0  0  0  0  0  0  0
  -45.5404  -28.5972    3.7968 H   0  0  0  0  0  0  0  0  0  0  0  0
  -51.1886  -29.3035   10.0561 H   0  0  0  0  0  0  0  0  0  0  0  0
  -42.8098  -32.0212    3.6622 H   0  0  0  0  0  0  0  0  0  0  0  0
  1  2  1  0  0  0  0
  1  5  2  0  0  0  0
  2  6  2  0  0  0  0
  3  7  2  0  0  0  0
  3  9  1  0  0  0  0
  4  8  1  0  0  0  0
  4  9  2  0  0  0  0
  5 10  1  0  0  0  0
  6 11  1  0  0  0  0
  7 12  1  0  0  0  0
  8 12  2  0  0  0  0
  9 13  1  0  0  0  0
 10 11  2  0  0  0  0
 10 16  1  0  0  0  0
 11 17  1  0  0  0  0
 12 20  1  0  0  0  0
 13 21  1  0  0  0  0
 13 23  2  0  0  0  0
 14 18  1  0  0  0  0
 14 24  2  0  0  0  0
 14 26  1  0  0  0  0
 15 20  1  0  0  0  0
 15 22  1  0  0  0  0
 15 25  2  0  0  0  0
 16 18  1  0  0  0  0
 17 18  1  0  0  0  0
 17 21  1  0  0  0  0
 19 22  1  0  0  0  0
  1 27  1  0  0  0  0
  2 28  1  0  0  0  0
  3 29  1  0  0  0  0
  4 30  1  0  0  0  0
  5 31  1  0  0  0  0
  6 32  1  0  0  0  0
  7 33  1  0  0  0  0
  8 34  1  0  0  0  0
 16 35  1  0  0  0  0
 16 36  1  0  0  0  0
 17 37  1  0  0  0  0
 18 38  1  0  0  0  0
 19 39  1  0  0  0  0
 19 40  1  0  0  0  0
 19 41  1  0  0  0  0
 20 42  1  0  0  0  0
 21 43  1  0  0  0  0
 22 44  1  0  0  0  0
 26 45  1  0  0  0  0
M  END
$$$$
