Z9604
  -OEChem-03182415283D

 47 50  0     1  0  0  0  0  0999 V2000
  -44.7358  -25.9688   -0.3145 C   0  0  0  0  0  0  0  0  0  0  0  0
  -46.0617  -26.3976   -0.4780 C   0  0  0  0  0  0  0  0  0  0  0  0
  -47.7287  -29.2130    5.5296 C   0  0  0  0  0  0  0  0  0  0  0  0
  -49.8771  -29.1781    4.4513 C   0  0  0  0  0  0  0  0  0  0  0  0
  -43.8333  -26.7192    0.4414 C   0  0  0  0  0  0  0  0  0  0  0  0
  -46.5059  -27.5803    0.1162 C   0  0  0  0  0  0  0  0  0  0  0  0
  -48.3714  -29.1728    6.7768 C   0  0  0  0  0  0  0  0  0  0  0  0
  -50.5158  -29.1391    5.6970 C   0  0  0  0  0  0  0  0  0  0  0  0
  -48.4790  -29.2235    4.3517 C   0  0  0  0  0  0  0  0  0  0  0  0
  -44.2793  -27.8973    1.0163 C   0  0  0  0  0  0  0  0  0  0  0  0
  -45.6061  -28.3213    0.8658 C   0  0  0  0  0  0  0  0  0  0  0  0
  -49.7701  -29.1443    6.8756 C   0  0  0  0  0  0  0  0  0  0  0  0
  -47.8868  -29.3069    2.9831 C   0  0  0  0  0  0  0  0  0  0  0  0
  -51.6846  -29.1225    8.5056 C   0  0  0  0  0  0  0  0  0  0  0  0
  -44.2123  -31.1749    2.7991 C   0  0  0  0  0  0  0  0  0  0  0  0
  -43.5015  -28.8625    1.8556 C   0  0  0  0  0  0  0  0  0  0  0  0
  -52.8832  -30.1811   10.5492 C   0  0  0  0  0  0  0  0  0  0  0  0
  -53.2696  -28.7334   10.5359 C   0  0  0  0  0  0  0  0  0  0  0  0
  -45.8431  -29.6196    1.5902 C   0  0  1  0  0  0  0  0  0  0  0  0
  -51.9301  -29.1567    9.9818 C   0  0  0  0  0  0  0  0  0  0  0  0
  -44.3833  -30.1241    1.7264 C   0  0  2  0  0  0  0  0  0  0  0  0
  -50.3346  -29.1347    8.1771 N   0  0  0  0  0  0  0  0  0  0  0  0
  -46.5069  -29.4184    2.8766 N   0  0  0  0  0  0  0  0  0  0  0  0
  -48.6405  -29.2904    2.0112 O   0  0  0  0  0  0  0  0  0  0  0  0
  -52.6376  -29.1000    7.7368 O   0  0  0  0  0  0  0  0  0  0  0  0
  -44.5621  -32.3410    2.6703 O   0  0  0  0  0  0  0  0  0  0  0  0
  -43.6850  -30.6773    3.9404 O   0  0  0  0  0  0  0  0  0  0  0  0
  -44.4090  -25.0456   -0.7851 H   0  0  0  0  0  0  0  0  0  0  0  0
  -46.7488  -25.8044   -1.0752 H   0  0  0  0  0  0  0  0  0  0  0  0
  -46.6442  -29.2414    5.5276 H   0  0  0  0  0  0  0  0  0  0  0  0
  -50.5050  -29.1823    3.5630 H   0  0  0  0  0  0  0  0  0  0  0  0
  -42.8075  -26.3887    0.5624 H   0  0  0  0  0  0  0  0  0  0  0  0
  -47.5302  -27.9081   -0.0209 H   0  0  0  0  0  0  0  0  0  0  0  0
  -47.7570  -29.1718    7.6753 H   0  0  0  0  0  0  0  0  0  0  0  0
  -51.5990  -29.1134    5.6921 H   0  0  0  0  0  0  0  0  0  0  0  0
  -42.4985  -29.0416    1.4563 H   0  0  0  0  0  0  0  0  0  0  0  0
  -43.4282  -28.4859    2.8804 H   0  0  0  0  0  0  0  0  0  0  0  0
  -53.4033  -30.8461    9.8706 H   0  0  0  0  0  0  0  0  0  0  0  0
  -52.6499  -30.6219   11.5113 H   0  0  0  0  0  0  0  0  0  0  0  0
  -53.2892  -28.2162   11.4877 H   0  0  0  0  0  0  0  0  0  0  0  0
  -54.0539  -28.4307    9.8532 H   0  0  0  0  0  0  0  0  0  0  0  0
  -46.4352  -30.3120    0.9808 H   0  0  0  0  0  0  0  0  0  0  0  0
  -51.0714  -28.9176   10.6049 H   0  0  0  0  0  0  0  0  0  0  0  0
  -44.0928  -30.6099    0.7808 H   0  0  0  0  0  0  0  0  0  0  0  0
  -49.6636  -29.1507    8.9419 H   0  0  0  0  0  0  0  0  0  0  0  0
  -45.9178  -29.3936    3.7006 H   0  0  0  0  0  0  0  0  0  0  0  0
  -43.6164  -31.3606    4.6399 H   0  0  0  0  0  0  0  0  0  0  0  0
  1  2  1  0  0  0  0
  1  5  2  0  0  0  0
  2  6  2  0  0  0  0
  3  7  2  0  0  0  0
  3  9  1  0  0  0  0
  4  8  1  0  0  0  0
  4  9  2  0  0  0  0
  5 10  1  0  0  0  0
  6 11  1  0  0  0  0
  7 12  1  0  0  0  0
  8 12  2  0  0  0  0
  9 13  1  0  0  0  0
 10 11  2  0  0  0  0
 10 16  1  0  0  0  0
 11 19  1  0  0  0  0
 12 22  1  0  0  0  0
 13 23  1  0  0  0  0
 13 24  2  0  0  0  0
 14 20  1  0  0  0  0
 14 22  1  0  0  0  0
 14 25  2  0  0  0  0
 15 21  1  0  0  0  0
 15 26  2  0  0  0  0
 15 27  1  0  0  0  0
 16 21  1  0  0  0  0
 17 18  1  0  0  0  0
 17 20  1  0  0  0  0
 18 20  1  0  0  0  0
 19 21  1  0  0  0  0
 19 23  1  0  0  0  0
  1 28  1  0  0  0  0
  2 29  1  0  0  0  0
  3 30  1  0  0  0  0
  4 31  1  0  0  0  0
  5 32  1  0  0  0  0
  6 33  1  0  0  0  0
  7 34  1  0  0  0  0
  8 35  1  0  0  0  0
 16 36  1  0  0  0  0
 16 37  1  0  0  0  0
 17 38  1  0  0  0  0
 17 39  1  0  0  0  0
 18 40  1  0  0  0  0
 18 41  1  0  0  0  0
 19 42  1  0  0  0  0
 20 43  1  0  0  0  0
 21 44  1  0  0  0  0
 22 45  1  0  0  0  0
 23 46  1  0  0  0  0
 27 47  1  0  0  0  0
M  END
$$$$
