Lig8
  -OEChem-10162320543D

 35 36  0     0  0  0  0  0  0999 V2000
   -7.2840    2.3447  -24.4345 C   0  0  0  0  0  0  0  0  0  0  0  0
   -7.5305    3.6643  -24.7853 C   0  0  0  0  0  0  0  0  0  0  0  0
   -6.0768    1.7482  -24.7881 C   0  0  0  0  0  0  0  0  0  0  0  0
   -6.5442    4.3384  -25.4815 C   0  0  0  0  0  0  0  0  0  0  0  0
   -5.1273    2.5066  -25.4724 C   0  0  0  0  0  0  0  0  0  0  0  0
   -2.7891   -1.4179  -24.4507 C   0  0  0  0  0  0  0  0  0  0  0  0
   -3.1340   -0.4346  -25.5478 C   0  0  0  0  0  0  0  0  0  0  0  0
   -0.6383   -5.5857  -24.7928 C   0  0  0  0  0  0  0  0  0  0  0  0
    0.1922   -4.3546  -24.4728 C   0  0  0  0  0  0  0  0  0  0  0  0
   -2.0901   -5.1080  -24.7703 C   0  0  0  0  0  0  0  0  0  0  0  0
   -0.6748   -3.6094  -23.4715 C   0  0  0  0  0  0  0  0  0  0  0  0
   -2.0904   -3.7619  -24.0317 C   0  0  0  0  0  0  0  0  0  0  0  0
   -3.8078    1.9312  -25.9160 C   0  0  0  0  0  0  0  0  0  0  0  0
   -5.3561    3.7950  -25.8310 N   0  0  0  0  0  0  0  0  0  0  0  0
   -2.4236   -2.6608  -24.9266 N   0  0  0  0  0  0  0  0  0  0  0  0
   -3.3370    0.8456  -25.0758 N   0  0  0  0  0  0  0  0  0  0  0  0
   -2.8634   -1.0649  -23.2833 O   0  0  0  0  0  0  0  0  0  0  0  0
   -3.2213   -0.8279  -26.7008 O   0  0  0  0  0  0  0  0  0  0  0  0
   -8.0301    1.7760  -23.8876 H   0  0  0  0  0  0  0  0  0  0  0  0
   -8.4651    4.1477  -24.5260 H   0  0  0  0  0  0  0  0  0  0  0  0
   -5.8984    0.7120  -24.5197 H   0  0  0  0  0  0  0  0  0  0  0  0
   -6.6875    5.3681  -25.7907 H   0  0  0  0  0  0  0  0  0  0  0  0
   -0.3639   -6.0332  -25.7526 H   0  0  0  0  0  0  0  0  0  0  0  0
   -0.4911   -6.3454  -24.0155 H   0  0  0  0  0  0  0  0  0  0  0  0
    1.1730   -4.6101  -24.0622 H   0  0  0  0  0  0  0  0  0  0  0  0
    0.3427   -3.7504  -25.3751 H   0  0  0  0  0  0  0  0  0  0  0  0
   -2.4857   -5.0238  -25.7888 H   0  0  0  0  0  0  0  0  0  0  0  0
   -2.7118   -5.8408  -24.2435 H   0  0  0  0  0  0  0  0  0  0  0  0
   -0.6119   -4.1009  -22.4931 H   0  0  0  0  0  0  0  0  0  0  0  0
   -0.3569   -2.5695  -23.3496 H   0  0  0  0  0  0  0  0  0  0  0  0
   -2.8275   -3.7561  -23.2208 H   0  0  0  0  0  0  0  0  0  0  0  0
   -3.8988    1.5911  -26.9528 H   0  0  0  0  0  0  0  0  0  0  0  0
   -3.0380    2.7094  -25.8743 H   0  0  0  0  0  0  0  0  0  0  0  0
   -2.3724   -2.8110  -25.9305 H   0  0  0  0  0  0  0  0  0  0  0  0
   -3.1946    1.0370  -24.0879 H   0  0  0  0  0  0  0  0  0  0  0  0
  1  2  1  0  0  0  0
  1  3  2  0  0  0  0
  2  4  2  0  0  0  0
  3  5  1  0  0  0  0
  4 14  1  0  0  0  0
  5 13  1  0  0  0  0
  5 14  2  0  0  0  0
  6  7  1  0  0  0  0
  6 15  1  0  0  0  0
  6 17  2  0  0  0  0
  7 16  1  0  0  0  0
  7 18  2  0  0  0  0
  8  9  1  0  0  0  0
  8 10  1  0  0  0  0
  9 11  1  0  0  0  0
 10 12  1  0  0  0  0
 11 12  1  0  0  0  0
 12 15  1  0  0  0  0
 13 16  1  0  0  0  0
  1 19  1  0  0  0  0
  2 20  1  0  0  0  0
  3 21  1  0  0  0  0
  4 22  1  0  0  0  0
  8 23  1  0  0  0  0
  8 24  1  0  0  0  0
  9 25  1  0  0  0  0
  9 26  1  0  0  0  0
 10 27  1  0  0  0  0
 10 28  1  0  0  0  0
 11 29  1  0  0  0  0
 11 30  1  0  0  0  0
 12 31  1  0  0  0  0
 13 32  1  0  0  0  0
 13 33  1  0  0  0  0
 15 34  1  0  0  0  0
 16 35  1  0  0  0  0
M  END
$$$$
