Z8539
  -OEChem-03182415363D

 50 53  0     1  0  0  0  0  0999 V2000
  -46.0635  -26.4407   -0.5161 C   0  0  0  0  0  0  0  0  0  0  0  0
  -49.8501  -29.1826    4.3871 C   0  0  0  0  0  0  0  0  0  0  0  0
  -47.6971  -29.2031    5.4624 C   0  0  0  0  0  0  0  0  0  0  0  0
  -46.4973  -27.6320    0.0690 C   0  0  0  0  0  0  0  0  0  0  0  0
  -50.4835  -29.1269    5.6316 C   0  0  0  0  0  0  0  0  0  0  0  0
  -48.3348  -29.1463    6.7087 C   0  0  0  0  0  0  0  0  0  0  0  0
  -44.7386  -26.0098   -0.3612 C   0  0  0  0  0  0  0  0  0  0  0  0
  -48.4530  -29.2287    4.2882 C   0  0  0  0  0  0  0  0  0  0  0  0
  -45.5903  -28.3789    0.8067 C   0  0  0  0  0  0  0  0  0  0  0  0
  -44.2638  -27.9568    0.9542 C   0  0  0  0  0  0  0  0  0  0  0  0
  -49.7322  -29.1154    6.8065 C   0  0  0  0  0  0  0  0  0  0  0  0
  -43.8362  -26.7740    0.3800 C   0  0  0  0  0  0  0  0  0  0  0  0
  -47.8667  -29.3280    2.9220 C   0  0  0  0  0  0  0  0  0  0  0  0
  -44.2052  -31.2170    2.7711 C   0  0  0  0  0  0  0  0  0  0  0  0
  -51.6479  -29.0730    8.4400 C   0  0  0  0  0  0  0  0  0  0  0  0
  -43.4856  -28.9222    1.7944 C   0  0  0  0  0  0  0  0  0  0  0  0
  -53.6593  -30.2892   11.0949 C   0  0  0  0  0  0  0  0  0  0  0  0
  -53.2703  -29.1071   11.9315 C   0  0  0  0  0  0  0  0  0  0  0  0
  -45.8278  -29.6740    1.5356 C   0  0  1  0  0  0  0  0  0  0  0  0
  -44.3707  -30.1822    1.6804 C   0  0  2  0  0  0  0  0  0  0  0  0
  -53.1110  -29.0518   10.4373 C   0  0  0  0  0  0  0  0  0  0  0  0
  -50.2922  -29.0820    8.1050 N   0  0  0  0  0  0  0  0  0  0  0  0
  -46.4902  -29.4600    2.8185 N   0  0  0  0  0  0  0  0  0  0  0  0
  -51.8159  -29.0539    9.8267 N   0  0  0  0  0  0  0  0  0  0  0  0
  -48.6218  -29.3059    1.9518 O   0  0  0  0  0  0  0  0  0  0  0  0
  -44.5530  -32.3853    2.6576 O   0  0  0  0  0  0  0  0  0  0  0  0
  -52.5961  -29.0818    7.6581 O   0  0  0  0  0  0  0  0  0  0  0  0
  -42.5416  -26.3816    0.5416 O   0  0  0  0  0  0  0  0  0  0  0  0
  -43.6881  -30.7015    3.9096 O   0  0  0  0  0  0  0  0  0  0  0  0
  -46.7597  -25.8419   -1.0971 H   0  0  0  0  0  0  0  0  0  0  0  0
  -50.4800  -29.1985    3.5005 H   0  0  0  0  0  0  0  0  0  0  0  0
  -46.6127  -29.2309    5.4581 H   0  0  0  0  0  0  0  0  0  0  0  0
  -47.5231  -27.9583   -0.0608 H   0  0  0  0  0  0  0  0  0  0  0  0
  -51.5664  -29.0992    5.6284 H   0  0  0  0  0  0  0  0  0  0  0  0
  -47.7195  -29.1346    7.6063 H   0  0  0  0  0  0  0  0  0  0  0  0
  -44.4261  -25.0786   -0.8254 H   0  0  0  0  0  0  0  0  0  0  0  0
  -42.4856  -29.1099    1.3913 H   0  0  0  0  0  0  0  0  0  0  0  0
  -43.4039  -28.5385    2.8161 H   0  0  0  0  0  0  0  0  0  0  0  0
  -53.0299  -31.1693   11.1438 H   0  0  0  0  0  0  0  0  0  0  0  0
  -54.7151  -30.4979   10.9745 H   0  0  0  0  0  0  0  0  0  0  0  0
  -54.0638  -28.5142   12.3695 H   0  0  0  0  0  0  0  0  0  0  0  0
  -52.3809  -29.1929   12.5431 H   0  0  0  0  0  0  0  0  0  0  0  0
  -46.4220  -30.3683    0.9304 H   0  0  0  0  0  0  0  0  0  0  0  0
  -44.0805  -30.6821    0.7424 H   0  0  0  0  0  0  0  0  0  0  0  0
  -53.8237  -28.4244    9.9097 H   0  0  0  0  0  0  0  0  0  0  0  0
  -49.6301  -29.0741    8.8767 H   0  0  0  0  0  0  0  0  0  0  0  0
  -45.9025  -29.4372    3.6436 H   0  0  0  0  0  0  0  0  0  0  0  0
  -50.9971  -29.0596   10.4277 H   0  0  0  0  0  0  0  0  0  0  0  0
  -42.4119  -25.5453    0.0629 H   0  0  0  0  0  0  0  0  0  0  0  0
  -43.6241  -31.3731    4.6210 H   0  0  0  0  0  0  0  0  0  0  0  0
  1  4  1  0  0  0  0
  1  7  2  0  0  0  0
  2  5  2  0  0  0  0
  2  8  1  0  0  0  0
  3  6  1  0  0  0  0
  3  8  2  0  0  0  0
  4  9  2  0  0  0  0
  5 11  1  0  0  0  0
  6 11  2  0  0  0  0
  7 12  1  0  0  0  0
  8 13  1  0  0  0  0
  9 10  1  0  0  0  0
  9 19  1  0  0  0  0
 10 12  2  0  0  0  0
 10 16  1  0  0  0  0
 11 22  1  0  0  0  0
 12 28  1  0  0  0  0
 13 23  1  0  0  0  0
 13 25  2  0  0  0  0
 14 20  1  0  0  0  0
 14 26  2  0  0  0  0
 14 29  1  0  0  0  0
 15 22  1  0  0  0  0
 15 24  1  0  0  0  0
 15 27  2  0  0  0  0
 16 20  1  0  0  0  0
 17 18  1  0  0  0  0
 17 21  1  0  0  0  0
 18 21  1  0  0  0  0
 19 20  1  0  0  0  0
 19 23  1  0  0  0  0
 21 24  1  0  0  0  0
  1 30  1  0  0  0  0
  2 31  1  0  0  0  0
  3 32  1  0  0  0  0
  4 33  1  0  0  0  0
  5 34  1  0  0  0  0
  6 35  1  0  0  0  0
  7 36  1  0  0  0  0
 16 37  1  0  0  0  0
 16 38  1  0  0  0  0
 17 39  1  0  0  0  0
 17 40  1  0  0  0  0
 18 41  1  0  0  0  0
 18 42  1  0  0  0  0
 19 43  1  0  0  0  0
 20 44  1  0  0  0  0
 21 45  1  0  0  0  0
 22 46  1  0  0  0  0
 23 47  1  0  0  0  0
 24 48  1  0  0  0  0
 28 49  1  0  0  0  0
 29 50  1  0  0  0  0
M  END
$$$$
