Z8539_0072
  -OEChem-03182414403D

 51 54  0     1  0  0  0  0  0999 V2000
  -46.0350  -26.4654   -0.5168 C   0  0  0  0  0  0  0  0  0  0  0  0
  -47.6810  -29.1968    5.4654 C   0  0  0  0  0  0  0  0  0  0  0  0
  -46.4511  -27.6572    0.0798 C   0  0  0  0  0  0  0  0  0  0  0  0
  -48.3078  -29.1403    6.7202 C   0  0  0  0  0  0  0  0  0  0  0  0
  -44.7169  -26.0142   -0.3655 C   0  0  0  0  0  0  0  0  0  0  0  0
  -50.4586  -29.1041    5.6624 C   0  0  0  0  0  0  0  0  0  0  0  0
  -48.4366  -29.2170    4.2864 C   0  0  0  0  0  0  0  0  0  0  0  0
  -45.5349  -28.3827    0.8280 C   0  0  0  0  0  0  0  0  0  0  0  0
  -44.2156  -27.9408    0.9711 C   0  0  0  0  0  0  0  0  0  0  0  0
  -49.7020  -29.1035    6.8315 C   0  0  0  0  0  0  0  0  0  0  0  0
  -43.8046  -26.7590    0.3831 C   0  0  0  0  0  0  0  0  0  0  0  0
  -49.8349  -29.1595    4.4107 C   0  0  0  0  0  0  0  0  0  0  0  0
  -47.8078  -29.3286    2.9323 C   0  0  0  0  0  0  0  0  0  0  0  0
  -44.0916  -31.0938    2.9027 C   0  0  0  0  0  0  0  0  0  0  0  0
  -51.6163  -29.0718    8.4658 C   0  0  0  0  0  0  0  0  0  0  0  0
  -43.4237  -28.8849    1.8206 C   0  0  0  0  0  0  0  0  0  0  0  0
  -53.6392  -30.2905   11.1062 C   0  0  0  0  0  0  0  0  0  0  0  0
  -53.2619  -29.1063   11.9450 C   0  0  0  0  0  0  0  0  0  0  0  0
  -45.7542  -29.6691    1.5777 C   0  0  1  0  0  0  0  0  0  0  0  0
  -44.2933  -30.1564    1.7355 C   0  0  2  0  0  0  0  0  0  0  0  0
  -53.0896  -29.0515   10.4527 C   0  0  0  0  0  0  0  0  0  0  0  0
  -50.2593  -29.0748    8.1320 N   0  0  0  0  0  0  0  0  0  0  0  0
  -46.4279  -29.4429    2.8538 N   0  0  0  0  0  0  0  0  0  0  0  0
  -51.7896  -29.0508    9.8513 N   0  0  0  0  0  0  0  0  0  0  0  0
  -48.5263  -29.3329    1.9348 O   0  0  0  0  0  0  0  0  0  0  0  0
  -43.5883  -30.7973    3.9759 O   0  0  0  0  0  0  0  0  0  0  0  0
  -52.5646  -29.0871    7.6836 O   0  0  0  0  0  0  0  0  0  0  0  0
  -42.5148  -26.3490    0.5393 O   0  0  0  0  0  0  0  0  0  0  0  0
  -50.7001  -29.1609    3.3474 O   0  0  0  0  0  0  0  0  0  0  0  0
  -44.5721  -32.3285    2.6102 O   0  0  0  0  0  0  0  0  0  0  0  0
  -46.7397  -25.8822   -1.1035 H   0  0  0  0  0  0  0  0  0  0  0  0
  -46.5964  -29.2310    5.4630 H   0  0  0  0  0  0  0  0  0  0  0  0
  -47.4719  -27.9988   -0.0488 H   0  0  0  0  0  0  0  0  0  0  0  0
  -47.6839  -29.1355    7.6119 H   0  0  0  0  0  0  0  0  0  0  0  0
  -44.4171  -25.0832   -0.8384 H   0  0  0  0  0  0  0  0  0  0  0  0
  -51.5415  -29.0660    5.6758 H   0  0  0  0  0  0  0  0  0  0  0  0
  -42.4252  -29.0682    1.4123 H   0  0  0  0  0  0  0  0  0  0  0  0
  -43.3387  -28.4948    2.8401 H   0  0  0  0  0  0  0  0  0  0  0  0
  -53.0071  -31.1683   11.1615 H   0  0  0  0  0  0  0  0  0  0  0  0
  -54.6932  -30.5031   10.9764 H   0  0  0  0  0  0  0  0  0  0  0  0
  -54.0617  -28.5162   12.3753 H   0  0  0  0  0  0  0  0  0  0  0  0
  -52.3775  -29.1878   12.5640 H   0  0  0  0  0  0  0  0  0  0  0  0
  -46.3349  -30.3817    0.9806 H   0  0  0  0  0  0  0  0  0  0  0  0
  -43.9915  -30.6907    0.8211 H   0  0  0  0  0  0  0  0  0  0  0  0
  -53.8001  -28.4261    9.9196 H   0  0  0  0  0  0  0  0  0  0  0  0
  -49.5964  -29.0698    8.9029 H   0  0  0  0  0  0  0  0  0  0  0  0
  -45.8489  -29.3950    3.6834 H   0  0  0  0  0  0  0  0  0  0  0  0
  -50.9742  -29.0537   10.4567 H   0  0  0  0  0  0  0  0  0  0  0  0
  -42.3961  -25.5166    0.0510 H   0  0  0  0  0  0  0  0  0  0  0  0
  -50.1954  -29.1779    2.5195 H   0  0  0  0  0  0  0  0  0  0  0  0
  -44.4582  -32.9490    3.3611 H   0  0  0  0  0  0  0  0  0  0  0  0
  1  3  1  0  0  0  0
  1  5  2  0  0  0  0
  2  4  2  0  0  0  0
  2  7  1  0  0  0  0
  3  8  2  0  0  0  0
  4 10  1  0  0  0  0
  5 11  1  0  0  0  0
  6 10  2  0  0  0  0
  6 12  1  0  0  0  0
  7 12  2  0  0  0  0
  7 13  1  0  0  0  0
  8  9  1  0  0  0  0
  8 19  1  0  0  0  0
  9 11  2  0  0  0  0
  9 16  1  0  0  0  0
 10 22  1  0  0  0  0
 11 28  1  0  0  0  0
 12 29  1  0  0  0  0
 13 23  1  0  0  0  0
 13 25  2  0  0  0  0
 14 20  1  0  0  0  0
 14 26  2  0  0  0  0
 14 30  1  0  0  0  0
 15 22  1  0  0  0  0
 15 24  1  0  0  0  0
 15 27  2  0  0  0  0
 16 20  1  0  0  0  0
 17 18  1  0  0  0  0
 17 21  1  0  0  0  0
 18 21  1  0  0  0  0
 19 20  1  0  0  0  0
 19 23  1  0  0  0  0
 21 24  1  0  0  0  0
  1 31  1  0  0  0  0
  2 32  1  0  0  0  0
  3 33  1  0  0  0  0
  4 34  1  0  0  0  0
  5 35  1  0  0  0  0
  6 36  1  0  0  0  0
 16 37  1  0  0  0  0
 16 38  1  0  0  0  0
 17 39  1  0  0  0  0
 17 40  1  0  0  0  0
 18 41  1  0  0  0  0
 18 42  1  0  0  0  0
 19 43  1  0  0  0  0
 20 44  1  0  0  0  0
 21 45  1  0  0  0  0
 22 46  1  0  0  0  0
 23 47  1  0  0  0  0
 24 48  1  0  0  0  0
 28 49  1  0  0  0  0
 29 50  1  0  0  0  0
 30 51  1  0  0  0  0
M  END
$$$$
