Lig2
  -OEChem-10162315453D

 54 56  0     1  0  0  0  0  0999 V2000
    2.6875   -2.6793  -23.8409 C   0  0  0  0  0  0  0  0  0  0  0  0
    3.5386   -2.5851  -24.9298 C   0  0  0  0  0  0  0  0  0  0  0  0
    1.3428   -2.9743  -24.0426 C   0  0  0  0  0  0  0  0  0  0  0  0
   -6.4290    1.6641  -24.3988 C   0  0  0  0  0  0  0  0  0  0  0  0
   -6.8801    3.8375  -25.3365 C   0  0  0  0  0  0  0  0  0  0  0  0
   -7.4162    1.8741  -23.4352 C   0  0  0  0  0  0  0  0  0  0  0  0
   -7.8705    4.0430  -24.3736 C   0  0  0  0  0  0  0  0  0  0  0  0
    3.0478   -2.7904  -26.2199 C   0  0  0  0  0  0  0  0  0  0  0  0
    0.8156   -3.1785  -25.3363 C   0  0  0  0  0  0  0  0  0  0  0  0
   -6.1323    2.6561  -25.3425 C   0  0  0  0  0  0  0  0  0  0  0  0
   -8.1312    3.0748  -23.3978 C   0  0  0  0  0  0  0  0  0  0  0  0
    1.6930   -3.0895  -26.4493 C   0  0  0  0  0  0  0  0  0  0  0  0
   -1.9285   -1.6453  -24.2937 C   0  0  0  0  0  0  0  0  0  0  0  0
   -3.2257    0.7822  -26.0036 C   0  0  0  0  0  0  0  0  0  0  0  0
   -1.2452   -5.2518  -23.9231 C   0  0  0  0  0  0  0  0  0  0  0  0
   -0.9077   -5.0426  -25.3944 C   0  0  0  0  0  0  0  0  0  0  0  0
   -2.0689   -4.0187  -23.5924 C   0  0  0  0  0  0  0  0  0  0  0  0
   -0.6638   -3.5280  -25.4963 C   0  0  1  0  0  0  0  0  0  0  0  0
    2.4335   -2.9083  -29.1983 C   0  0  0  0  0  0  0  0  0  0  0  0
   -5.0478    2.4526  -26.3640 C   0  0  0  0  0  0  0  0  0  0  0  0
   -1.3274   -0.6509  -25.2747 C   0  0  0  0  0  0  0  0  0  0  0  0
   -1.5347   -2.9667  -24.4492 N   0  0  0  0  0  0  0  0  0  0  0  0
   -9.1194    3.2766  -22.4466 N   0  0  0  0  0  0  0  0  0  0  0  0
   -3.8081    2.0176  -25.7441 N   0  0  0  0  0  0  0  0  0  0  0  0
   -2.0950    0.5757  -25.2188 N   0  0  0  0  0  0  0  0  0  0  0  0
   -2.6852   -1.2773  -23.3916 O   0  0  0  0  0  0  0  0  0  0  0  0
   -3.6629   -0.0354  -26.8126 O   0  0  0  0  0  0  0  0  0  0  0  0
    1.0645   -3.3885  -28.1157 S   0  0  0  0  0  0  0  0  0  0  0  0
    3.0653   -2.5295  -22.8342 H   0  0  0  0  0  0  0  0  0  0  0  0
    4.5898   -2.3579  -24.7794 H   0  0  0  0  0  0  0  0  0  0  0  0
    0.7085   -3.0466  -23.1628 H   0  0  0  0  0  0  0  0  0  0  0  0
   -5.8869    0.7218  -24.3972 H   0  0  0  0  0  0  0  0  0  0  0  0
   -6.6928    4.6115  -26.0765 H   0  0  0  0  0  0  0  0  0  0  0  0
   -7.6156    1.0918  -22.7064 H   0  0  0  0  0  0  0  0  0  0  0  0
   -8.4322    4.9742  -24.3868 H   0  0  0  0  0  0  0  0  0  0  0  0
    3.7645   -2.7159  -27.0312 H   0  0  0  0  0  0  0  0  0  0  0  0
   -1.7865   -6.1823  -23.7355 H   0  0  0  0  0  0  0  0  0  0  0  0
   -0.3262   -5.2699  -23.3264 H   0  0  0  0  0  0  0  0  0  0  0  0
   -0.0676   -5.6592  -25.7275 H   0  0  0  0  0  0  0  0  0  0  0  0
   -1.7841   -5.3124  -25.9981 H   0  0  0  0  0  0  0  0  0  0  0  0
   -3.1222   -4.1593  -23.8594 H   0  0  0  0  0  0  0  0  0  0  0  0
   -2.0070   -3.7288  -22.5397 H   0  0  0  0  0  0  0  0  0  0  0  0
   -1.0473   -3.1523  -26.4481 H   0  0  0  0  0  0  0  0  0  0  0  0
    2.0969   -2.9792  -30.2360 H   0  0  0  0  0  0  0  0  0  0  0  0
    3.2795   -3.5881  -29.0705 H   0  0  0  0  0  0  0  0  0  0  0  0
    2.7411   -1.8762  -29.0106 H   0  0  0  0  0  0  0  0  0  0  0  0
   -5.3821    1.7263  -27.1125 H   0  0  0  0  0  0  0  0  0  0  0  0
   -4.8173    3.3902  -26.8810 H   0  0  0  0  0  0  0  0  0  0  0  0
   -1.3562   -1.0291  -26.2986 H   0  0  0  0  0  0  0  0  0  0  0  0
   -0.3000   -0.4184  -24.9845 H   0  0  0  0  0  0  0  0  0  0  0  0
   -9.2502    2.6030  -21.7035 H   0  0  0  0  0  0  0  0  0  0  0  0
   -9.5887    4.1703  -22.3857 H   0  0  0  0  0  0  0  0  0  0  0  0
   -3.3734    2.6295  -25.0596 H   0  0  0  0  0  0  0  0  0  0  0  0
   -1.8275    1.2854  -24.5435 H   0  0  0  0  0  0  0  0  0  0  0  0
  1  2  1  0  0  0  0
  1  3  2  0  0  0  0
  2  8  2  0  0  0  0
  3  9  1  0  0  0  0
  4  6  2  0  0  0  0
  4 10  1  0  0  0  0
  5  7  1  0  0  0  0
  5 10  2  0  0  0  0
  6 11  1  0  0  0  0
  7 11  2  0  0  0  0
  8 12  1  0  0  0  0
  9 12  2  0  0  0  0
  9 18  1  0  0  0  0
 10 20  1  0  0  0  0
 11 23  1  0  0  0  0
 12 28  1  0  0  0  0
 13 21  1  0  0  0  0
 13 22  1  0  0  0  0
 13 26  2  0  0  0  0
 14 24  1  0  0  0  0
 14 25  1  0  0  0  0
 14 27  2  0  0  0  0
 15 16  1  0  0  0  0
 15 17  1  0  0  0  0
 16 18  1  0  0  0  0
 17 22  1  0  0  0  0
 18 22  1  0  0  0  0
 19 28  1  0  0  0  0
 20 24  1  0  0  0  0
 21 25  1  0  0  0  0
  1 29  1  0  0  0  0
  2 30  1  0  0  0  0
  3 31  1  0  0  0  0
  4 32  1  0  0  0  0
  5 33  1  0  0  0  0
  6 34  1  0  0  0  0
  7 35  1  0  0  0  0
  8 36  1  0  0  0  0
 15 37  1  0  0  0  0
 15 38  1  0  0  0  0
 16 39  1  0  0  0  0
 16 40  1  0  0  0  0
 17 41  1  0  0  0  0
 17 42  1  0  0  0  0
 18 43  1  0  0  0  0
 19 44  1  0  0  0  0
 19 45  1  0  0  0  0
 19 46  1  0  0  0  0
 20 47  1  0  0  0  0
 20 48  1  0  0  0  0
 21 49  1  0  0  0  0
 21 50  1  0  0  0  0
 23 51  1  0  0  0  0
 23 52  1  0  0  0  0
 24 53  1  0  0  0  0
 25 54  1  0  0  0  0
M  END
$$$$
